@<TRIPOS>MOLECULE
26651606_Intermediate
 31 33 0 0 0
SMALL
GASTEIGER

@<TRIPOS>ATOM
      1  N2        23.1800   28.8130   34.5680 N.ar    0  non0       -0.2061
      2  C11       24.4340   28.4620   34.0150 C.ar    0  non0        0.2897
      3  C12       24.4490   28.1530   32.5480 C.ar    0  non0        0.1015
      4  C13       23.3180   28.2080   31.8460 C.ar    0  non0        0.0399
      5  C14       22.0940   28.5800   32.5510 C.ar    0  non0        0.1051
      6  N3        22.0190   28.8680   33.8030 N.ar    0  non0       -0.1662
      7  O3        25.4050   28.4310   34.7390 O.2     0  non0       -0.2641
      8  C10       23.1020   29.1230   35.9680 C.3     0  non0        0.2154
      9  C9        21.8580   28.5290   36.5400 C.2     0  non0        0.2511
     10  N1        21.4780   27.2630   36.1840 N.am    0  non0       -0.2823
     11  H10       22.0460   26.7400   35.5320 H       0  non0        0.1549
     12  O4        21.1810   29.1720   37.3280 O.2     0  non0       -0.2726
     13  C6        20.3240   26.7110   36.7140 C.ar    0  non0        0.0505
     14  C5        20.3660   25.9930   37.9120 C.ar    0  non0        0.0178
     15  C4        19.1970   25.4400   38.4430 C.ar    0  non0        0.0382
     16  C3        17.9840   25.6120   37.7710 C.ar    0  non0        0.1386
     17  C8        17.9310   26.3200   36.5700 C.ar    0  non0        0.0382
     18  C7        19.1030   26.8700   36.0480 C.ar    0  non0        0.0178
     19  O1        16.8440   25.0790   38.3010 O.3     0  non0       -0.4755
     20  C2        16.1720   24.3190   37.3120 C.3     0  non0        0.2055
     21  C1        16.6370   22.8810   37.3790 C.3     0  non0        0.0512
     22  N4        25.7230   27.8050   31.9730 N.pl3   0  non0       -0.3532
     23  H21       25.7610   27.2370   31.1390 H       0  non0        0.1425
     24  H22       26.5770   28.1280   32.4040 H       0  non0        0.1425
     25  C15       20.9250   28.6190   31.7750 C.ar    0  non0        0.0524
     26  C16       20.5740   29.6710   31.0120 C.ar    0  non0        0.0372
     27  C17       19.3850   29.2740   30.4270 C.ar    0  non0        0.1229
     28  C18       18.4970   29.9380   29.4880 C.3     0  non0        0.0725
     29  O2        19.0650   28.0170   30.8710 O.2     0  non0       -0.4620
     30  C19       20.0510   27.6210   31.7180 C.ar    0  non0        0.1242
     31  C20       20.2120   26.3830   32.4630 C.3     0  non0        0.0725
@<TRIPOS>BOND
     1    28    27    1
     2    27    29   ar
     3    27    26   ar
     4    29    30   ar
     5    26    25   ar
     6    23    22    1
     7    30    25   ar
     8    30    31    1
     9    25     5    1
    10     4     3   ar
    11     4     5   ar
    12    22    24    1
    13    22     3    1
    14     3     2   ar
    15     5     6   ar
    16     6     1   ar
    17     2     1   ar
    18     2     7    2
    19     1     8    1
    20    11    10    1
    21     8     9    1
    22    18    17   ar
    23    18    13   ar
    24    10     9   am
    25    10    13    1
    26     9    12    2
    27    17    16   ar
    28    13    14   ar
    29    20    21    1
    30    20    19    1
    31    16    19    1
    32    16    15   ar
    33    14    15   ar
@<TRIPOS>MOLECULE
22411598_Intermediate
 32 36 0 0 0
SMALL
GASTEIGER

@<TRIPOS>ATOM
      1  C11       21.6740   25.4030   34.3620 C.3     0  non0        0.1950
      2  N2        22.1890   24.1530   33.8640 N.pl3   0  non0       -0.2271
      3  N1        23.0110   23.3100   34.5610 N.3     0  non0       -0.1246
      4  C10       22.9660   22.1620   33.8810 C.3     0  non0        0.1457
      5  C9        22.2790   22.3000   32.6740 C.ar    0  non0        0.0878
      6  C8        21.9240   23.6330   32.6040 C.ar    0  non0        0.0706
      7  C22       21.9830   21.3560   31.6250 C.ar    0  non0        0.3444
      8  C6        21.3960   24.2060   31.3770 C.ar    0  non0        0.0489
      9  C5        21.0540   23.2880   30.3670 C.ar    0  non0        0.1499
     10  C7        21.3080   25.5670   31.0820 C.ar    0  non0        0.0001
     11  C4        20.5410   23.6960   29.1370 C.ar    0  non0        0.0373
     12  O4        21.2820   21.8880   30.5220 O.2     0  non0       -0.4212
     13  C3        20.3990   25.0580   28.8870 C.ar    0  non0       -0.0011
     14  C2        20.7950   25.9890   29.8500 C.ar    0  non0       -0.0216
     15  C1        20.6710   27.4310   29.5570 C.3     0  non0        0.0310
     16  O3        22.3040   20.1880   31.6630 O.2     0  non0       -0.2447
     17  C12       20.2920   25.1970   34.8870 C.2     0  non0        0.2501
     18  N3        20.0070   24.0970   35.6510 N.am    0  non0       -0.2518
     19  H10       20.7630   23.4520   35.8320 H       0  non0        0.1578
     20  O2        19.4160   26.0090   34.6360 O.2     0  non0       -0.2728
     21  C13       18.6620   23.8980   36.1620 C.ar    0  non0        0.2326
     22  C14       17.7750   23.1020   35.5810 C.ar    0  non0        0.0786
     23  C15       16.6580   23.2060   36.4610 C.ar    0  non0        0.1245
     24  C16       15.4460   22.5790   36.4160 C.ar    0  non0        0.0232
     25  N4        16.9120   24.0630   37.4590 N.ar    0  non0       -0.0754
     26  C17       15.1550   21.6730   35.3830 C.ar    0  non0        0.0017
     27  C21       14.4790   22.8330   37.4020 C.ar    0  non0        0.0312
     28  C18       13.9080   21.0410   35.3280 C.ar    0  non0        0.0024
     29  C19       12.9450   21.3000   36.3070 C.ar    0  non0        0.0296
     30  C20       13.2390   22.1960   37.3410 C.ar    0  non0        0.1402
     31  F1        12.2900   22.4470   38.2980 F       0  non0       -0.2042
     32  O1        18.2020   24.5030   37.2670 O.2     0  non0       -0.3381
@<TRIPOS>BOND
     1    13    11   ar
     2    13    14   ar
     3    11     9   ar
     4    15    14    1
     5    14    10   ar
     6     9    12   ar
     7     9     8   ar
     8    12     7   ar
     9    10     8   ar
    10     8     6   ar
    11     7    16    2
    12     7     5   ar
    13     6     5   ar
    14     6     2    1
    15     5     4    1
    16     2     1    1
    17     2     3    1
    18     4     3    1
    19     1    17    1
    20    20    17    2
    21    17    18   am
    22    28    26   ar
    23    28    29   ar
    24    26    24   ar
    25    22    21   ar
    26    22    23   ar
    27    18    19    1
    28    18    21    1
    29    21    32   ar
    30    29    30   ar
    31    24    23    1
    32    24    27   ar
    33    23    25   ar
    34    32    25   ar
    35    30    27   ar
    36    30    31    1
@<TRIPOS>MOLECULE
22411598_Intermediate
 32 36 0 0 0
SMALL
GASTEIGER

@<TRIPOS>ATOM
      1  C11       15.0030   24.7890   31.0820 C.3     0  non0        0.1950
      2  N2        15.9650   24.8980   30.0140 N.pl3   0  non0       -0.2271
      3  N1        15.8450   25.7280   28.9330 N.3     0  non0       -0.1246
      4  C10       17.0670   25.7570   28.3980 C.3     0  non0        0.1457
      5  C9        17.9210   24.8330   29.0010 C.ar    0  non0        0.0878
      6  C8        17.1460   24.1740   29.9350 C.ar    0  non0        0.0706
      7  C22       19.3050   24.5060   28.7620 C.ar    0  non0        0.3444
      8  C6        17.6300   22.9760   30.6020 C.ar    0  non0        0.0489
      9  C5        18.9930   22.6790   30.4180 C.ar    0  non0        0.1499
     10  C7        16.8490   22.0570   31.3020 C.ar    0  non0        0.0001
     11  C4        19.5930   21.5600   30.9940 C.ar    0  non0        0.0373
     12  O4        19.8230   23.4710   29.5700 O.2     0  non0       -0.4212
     13  C3        18.8070   20.6890   31.7440 C.ar    0  non0       -0.0011
     14  C2        17.4390   20.9280   31.8840 C.ar    0  non0       -0.0216
     15  C1        16.6110   19.9780   32.6540 C.3     0  non0        0.0310
     16  O3        19.9920   25.0630   27.9340 O.2     0  non0       -0.2447
     17  C12       15.4400   25.6320   32.2330 C.2     0  non0        0.2501
     18  N3        15.9380   26.8890   32.0110 N.am    0  non0       -0.2518
     19  H10       15.9920   27.2010   31.0520 H       0  non0        0.1578
     20  O2        15.3520   25.2040   33.3730 O.2     0  non0       -0.2728
     21  C13       16.3620   27.7090   33.1310 C.ar    0  non0        0.2326
     22  C14       17.6260   27.8130   33.5180 C.ar    0  non0        0.0786
     23  C15       17.5340   28.7420   34.5950 C.ar    0  non0        0.1245
     24  C16       18.5180   29.2820   35.3740 C.ar    0  non0        0.0232
     25  N4        16.2610   29.0950   34.8170 N.ar    0  non0       -0.0754
     26  C17       19.8620   28.9320   35.1610 C.ar    0  non0        0.0017
     27  C21       18.1970   30.1920   36.3930 C.ar    0  non0        0.0312
     28  C18       20.8680   29.4730   35.9670 C.ar    0  non0        0.0024
     29  C19       20.5460   30.3740   36.9850 C.ar    0  non0        0.0296
     30  C20       19.2080   30.7290   37.1910 C.ar    0  non0        0.1402
     31  F1        18.8970   31.6120   38.1920 F       0  non0       -0.2042
     32  O1        15.5100   28.4330   33.8720 O.2     0  non0       -0.3381
@<TRIPOS>BOND
     1    16     7    2
     2     4     3    1
     3     4     5    1
     4     7     5   ar
     5     7    12   ar
     6     3     2    1
     7     5     6   ar
     8    12     9   ar
     9     6     2    1
    10     6     8   ar
    11     2     1    1
    12     9     8   ar
    13     9    11   ar
    14     8    10   ar
    15    11    13   ar
    16    19    18    1
    17     1    17    1
    18    10    14   ar
    19    13    14   ar
    20    14    15    1
    21    18    17   am
    22    18    21    1
    23    17    20    2
    24    21    22   ar
    25    21    32   ar
    26    22    23   ar
    27    32    25   ar
    28    23    25   ar
    29    23    24    1
    30    26    24   ar
    31    26    28   ar
    32    24    27   ar
    33    28    29   ar
    34    27    30   ar
    35    29    30   ar
    36    30    31    1
@<TRIPOS>MOLECULE
22411598_Intermediate
 32 36 0 0 0
SMALL
GASTEIGER

@<TRIPOS>ATOM
      1  C11       24.5140   20.4030   37.4150 C.3     0  non0        0.1950
      2  N2        25.7550   20.7500   38.0600 N.pl3   0  non0       -0.2271
      3  N1        26.8540   19.9380   38.1360 N.3     0  non0       -0.1246
      4  C10       27.8450   20.7530   38.5020 C.3     0  non0        0.1457
      5  C9        27.3780   22.0250   38.8340 C.ar    0  non0        0.0878
      6  C8        26.0050   21.9580   38.6980 C.ar    0  non0        0.0706
      7  C22       28.0620   23.2130   39.2820 C.ar    0  non0        0.3444
      8  C6        25.1490   23.0270   39.1840 C.ar    0  non0        0.0489
      9  C5        25.8040   24.2110   39.5730 C.ar    0  non0        0.1499
     10  C7        23.7730   22.9410   39.3970 C.ar    0  non0        0.0001
     11  C4        25.1100   25.3160   40.0610 C.ar    0  non0        0.0373
     12  O4        27.2270   24.3170   39.5540 O.2     0  non0       -0.4212
     13  C3        23.7290   25.2320   40.2060 C.ar    0  non0       -0.0011
     14  C2        23.0650   24.0440   39.8900 C.ar    0  non0       -0.0216
     15  C1        21.6030   23.9580   40.0800 C.3     0  non0        0.0310
     16  O3        29.2630   23.2810   39.4230 O.2     0  non0       -0.2447
     17  C12       24.4890   20.9830   36.0410 C.2     0  non0        0.2501
     18  N3        25.6030   20.9130   35.2470 N.am    0  non0       -0.2518
     19  H10       26.4180   20.4600   35.6350 H       0  non0        0.1578
     20  O2        23.4750   21.5210   35.6230 O.2     0  non0       -0.2728
     21  C13       25.5770   21.4770   33.9100 C.ar    0  non0        0.2326
     22  C14       26.0490   22.6820   33.6210 C.ar    0  non0        0.0786
     23  C15       25.8440   22.7550   32.2120 C.ar    0  non0        0.1245
     24  C16       26.1670   23.7440   31.3290 C.ar    0  non0        0.0232
     25  N4        25.2390   21.6480   31.7580 N.ar    0  non0       -0.0754
     26  C17       26.8050   24.9140   31.7770 C.ar    0  non0        0.0017
     27  C21       25.8690   23.6030   29.9640 C.ar    0  non0        0.0312
     28  C18       27.1240   25.9330   30.8750 C.ar    0  non0        0.0024
     29  C19       26.8210   25.7930   29.5180 C.ar    0  non0        0.0296
     30  C20       26.1940   24.6250   29.0710 C.ar    0  non0        0.1402
     31  F1        25.8970   24.4930   27.7390 F       0  non0       -0.2042
     32  O1        25.0730   20.8270   32.8500 O.2     0  non0       -0.3381
@<TRIPOS>BOND
     1    31    30    1
     2    30    29   ar
     3    30    27   ar
     4    29    28   ar
     5    27    24   ar
     6    28    26   ar
     7    24    26   ar
     8    24    23    1
     9    25    23   ar
    10    25    32   ar
    11    23    22   ar
    12    32    21   ar
    13    22    21   ar
    14    21    18    1
    15    18    19    1
    16    18    17   am
    17    20    17    2
    18    17     1    1
    19     1     2    1
    20     2     3    1
    21     2     6    1
    22     3     4    1
    23     4     5    1
    24     6     5   ar
    25     6     8   ar
    26     5     7   ar
    27     8    10   ar
    28     8     9   ar
    29     7    16    2
    30     7    12   ar
    31    10    14   ar
    32    12     9   ar
    33     9    11   ar
    34    14    15    1
    35    14    13   ar
    36    11    13   ar
@<TRIPOS>MOLECULE
103059844_Intermediate
 20 22 0 0 0
SMALL
GASTEIGER

@<TRIPOS>ATOM
      1  C3        14.4880   30.0220   30.9750 C.ar    0  non0        0.0517
      2  C4        13.7180   31.1140   31.3830 C.ar    0  non0        0.0147
      3  C5        13.6320   32.2460   30.5640 C.ar    0  non0        0.0013
      4  C6        14.3180   32.2870   29.3470 C.ar    0  non0        0.0001
      5  C7        15.0900   31.1880   28.9540 C.ar    0  non0        0.0027
      6  C8        15.1830   30.0540   29.7640 C.ar    0  non0        0.0296
      7  C9        15.9760   28.9370   29.3680 C.ar    0  non0        0.0666
      8  C10       15.4600   27.9530   28.5770 C.ar    0  non0        0.0177
      9  C11       16.3050   26.8300   28.1950 C.ar    0  non0        0.0046
     10  C12       17.5850   26.7390   28.6040 C.ar    0  non0        0.0374
     11  C13       18.1380   27.7600   29.4290 C.ar    0  non0        0.1478
     12  N2        19.3390   27.9070   29.9480 N.ar    0  non0       -0.2248
     13  N3        17.3010   28.8160   29.7740 N.ar    0  non0       -0.2888
     14  C14       19.2920   29.0930   30.6550 C.ar    0  non0        0.1195
     15  C15       18.0370   29.6630   30.5600 C.ar    0  non0        0.1022
     16  N1        14.5580   28.9020   31.7840 N.am    0  non0       -0.2839
     17  C2        13.5560   27.9690   31.7510 C.2     0  non0        0.2266
     18  C1        13.6320   26.7610   32.6250 C.3     0  non0        0.0949
     19  O1        12.6000   28.1260   31.0070 O.2     0  non0       -0.2748
     20  H4        15.3450   28.7640   32.4030 H       0  non0        0.1549
@<TRIPOS>BOND
     1     9     8   ar
     2     9    10   ar
     3     8     7   ar
     4    10    11   ar
     5     5     4   ar
     6     5     6   ar
     7     4     3   ar
     8     7     6    1
     9     7    13   ar
    10    11    13   ar
    11    11    12   ar
    12     6     1   ar
    13    13    15   ar
    14    12    14   ar
    15    15    14   ar
    16     3     2   ar
    17     1     2   ar
    18     1    16    1
    19    19    17    2
    20    17    16   am
    21    17    18    1
    22    16    20    1
@<TRIPOS>MOLECULE
103059844_Intermediate
 20 22 0 0 0
SMALL
GASTEIGER

@<TRIPOS>ATOM
      1  C3        16.6080   30.5080   30.3530 C.ar    0  non0        0.0517
      2  C4        16.1390   31.3950   29.3820 C.ar    0  non0        0.0147
      3  C5        15.1080   32.2880   29.7000 C.ar    0  non0        0.0013
      4  C6        14.5470   32.2880   30.9800 C.ar    0  non0        0.0001
      5  C7        15.0230   31.3880   31.9410 C.ar    0  non0        0.0027
      6  C8        16.0500   30.4930   31.6330 C.ar    0  non0        0.0296
      7  C9        16.5300   29.5720   32.6100 C.ar    0  non0        0.0666
      8  C10       17.5130   29.9230   33.4870 C.ar    0  non0        0.0177
      9  C11       17.9740   28.9510   34.4680 C.ar    0  non0        0.0046
     10  C12       17.4520   27.7100   34.5320 C.ar    0  non0        0.0374
     11  C13       16.4240   27.3290   33.6230 C.ar    0  non0        0.1478
     12  N2        15.7580   26.2020   33.4830 N.ar    0  non0       -0.2248
     13  N3        16.0110   28.2830   32.6990 N.ar    0  non0       -0.2888
     14  C14       14.8810   26.4200   32.4380 C.ar    0  non0        0.1195
     15  C15       15.0300   27.7010   31.9410 C.ar    0  non0        0.1022
     16  N1        17.6350   29.6370   30.0360 N.am    0  non0       -0.2839
     17  C2        18.9350   30.0670   30.0720 C.2     0  non0        0.2266
     18  C1        20.0420   29.1270   29.7290 C.3     0  non0        0.0949
     19  O1        19.1870   31.2210   30.3850 O.2     0  non0       -0.2748
     20  H4        17.4360   28.6810   29.7760 H       0  non0        0.1549
@<TRIPOS>BOND
     1     2     3   ar
     2     2     1   ar
     3     3     4   ar
     4    18    17    1
     5    20    16    1
     6    16    17   am
     7    16     1    1
     8    17    19    2
     9     1     6   ar
    10     4     5   ar
    11     6     5   ar
    12     6     7    1
    13    15    14   ar
    14    15    13   ar
    15    14    12   ar
    16     7    13   ar
    17     7     8   ar
    18    13    11   ar
    19    12    11   ar
    20     8     9   ar
    21    11    10   ar
    22     9    10   ar
@<TRIPOS>MOLECULE
103059844_Intermediate
 20 22 0 0 0
SMALL
GASTEIGER

@<TRIPOS>ATOM
      1  C3        13.7430   29.9440   28.9410 C.ar    0  non0        0.0517
      2  C4        13.2720   29.9300   27.6270 C.ar    0  non0        0.0147
      3  C5        13.3040   31.1060   26.8660 C.ar    0  non0        0.0013
      4  C6        13.8010   32.2880   27.4210 C.ar    0  non0        0.0001
      5  C7        14.2640   32.2880   28.7420 C.ar    0  non0        0.0027
      6  C8        14.2350   31.1210   29.5090 C.ar    0  non0        0.0296
      7  C9        14.7000   31.1230   30.8570 C.ar    0  non0        0.0666
      8  C10       13.8470   31.3510   31.8960 C.ar    0  non0        0.0177
      9  C11       14.3640   31.3440   33.2570 C.ar    0  non0        0.0046
     10  C12       15.6660   31.1170   33.5160 C.ar    0  non0        0.0374
     11  C13       16.5690   30.8760   32.4410 C.ar    0  non0        0.1478
     12  N2        17.8620   30.6270   32.4280 N.ar    0  non0       -0.2248
     13  N3        16.0390   30.8920   31.1560 N.ar    0  non0       -0.2888
     14  C14       18.1930   30.4740   31.0950 C.ar    0  non0        0.1195
     15  C15       17.0770   30.6400   30.2970 C.ar    0  non0        0.1022
     16  N1        13.7190   28.7760   29.6820 N.am    0  non0       -0.2839
     17  C2        14.6730   27.8150   29.4780 C.2     0  non0        0.2266
     18  C1        14.6460   26.5550   30.2780 C.3     0  non0        0.0949
     19  O1        15.5470   27.9900   28.6420 O.2     0  non0       -0.2748
     20  H4        13.0000   28.6230   30.3760 H       0  non0        0.1549
@<TRIPOS>BOND
     1     3     4   ar
     2     3     2   ar
     3     4     5   ar
     4     2     1   ar
     5    19    17    2
     6     5     6   ar
     7     1     6   ar
     8     1    16    1
     9    17    16   am
    10    17    18    1
    11     6     7    1
    12    16    20    1
    13    15    14   ar
    14    15    13   ar
    15     7    13   ar
    16     7     8   ar
    17    14    12   ar
    18    13    11   ar
    19     8     9   ar
    20    12    11   ar
    21    11    10   ar
    22     9    10   ar
@<TRIPOS>MOLECULE
26617127_Intermediate
 30 34 0 0 0
SMALL
GASTEIGER

@<TRIPOS>ATOM
      1  C1        11.8600   24.4950   34.1240 C.3     0  non0        0.0233
      2  C2        11.3890   25.4850   33.0670 C.3     0  non0        0.0245
      3  C3        11.9320   26.7760   33.5970 C.3     0  non0        0.1087
      4  N2        11.9350   26.6740   35.0220 N.am    0  non0       -0.2749
      5  C12       11.7300   25.2870   35.4180 C.3     0  non0        0.0938
      6  C13       12.0890   27.6530   35.9510 C.2     0  non0        0.2490
      7  O3        12.2530   28.8110   35.5980 O.2     0  non0       -0.2699
      8  C4        13.3360   26.9940   33.0900 C.3     0  non0        0.1744
      9  C5        13.3810   28.2120   32.2960 C.ar    0  non0        0.1166
     10  N1        12.3600   29.0100   32.1230 N.ar    0  non0       -0.2402
     11  C6        12.7720   30.1210   31.4080 C.ar    0  non0        0.0876
     12  C7        11.9710   31.2290   31.0640 C.ar    0  non0        0.0196
     13  C11       14.1060   30.1100   30.9950 C.ar    0  non0        0.0483
     14  C8        12.5180   32.2880   30.3270 C.ar    0  non0        0.0016
     15  C9        13.8520   32.2590   29.9250 C.ar    0  non0        0.0006
     16  C10       14.6610   31.1650   30.2560 C.ar    0  non0        0.0080
     17  S1        14.8410   28.6480   31.5350 S.2     0  non0       -0.0684
     18  O1        14.2320   27.1160   34.2030 O.3     0  non0       -0.3764
     19  H11       15.0940   26.7720   33.9590 H       0  non0        0.2109
     20  C14       12.0580   27.3220   37.3700 C.ar    0  non0        0.0538
     21  C15       10.8450   27.3450   38.0790 C.ar    0  non0        0.0076
     22  C16       10.8200   27.0390   39.4440 C.ar    0  non0        0.0370
     23  C17       12.0000   26.7030   40.1120 C.ar    0  non0        0.1385
     24  C18       13.2070   26.6730   39.4040 C.ar    0  non0        0.0370
     25  C19       13.2430   26.9750   38.0420 C.ar    0  non0        0.0076
     26  O2        11.9820   26.4060   41.4450 O.3     0  non0       -0.4774
     27  C20       12.6670   25.1680   41.6680 C.3     0  non0        0.1873
     28  C21       13.2140   25.0820   43.0280 C.3     0  non0        0.1020
     29  S2        11.6890   24.2160   43.5060 S.3     0  non0       -0.1326
     30  C22       11.7400   24.0290   41.6980 C.3     0  non0        0.1020
@<TRIPOS>BOND
     1    15    16   ar
     2    15    14   ar
     3    16    13   ar
     4    14    12   ar
     5    13    11   ar
     6    13    17   ar
     7    12    11   ar
     8    11    10   ar
     9    17     9   ar
    10    10     9   ar
    11     9     8    1
    12     2     3    1
    13     2     1    1
    14     8     3    1
    15     8    18    1
    16     3     4    1
    17    19    18    1
    18     1     5    1
    19     4     5    1
    20     4     6   am
    21     7     6    2
    22     6    20    1
    23    20    25   ar
    24    20    21   ar
    25    25    24   ar
    26    21    22   ar
    27    24    23   ar
    28    22    23   ar
    29    23    26    1
    30    26    27    1
    31    27    30    1
    32    27    28    1
    33    30    29    1
    34    28    29    1
@<TRIPOS>MOLECULE
26617127_Intermediate
 30 34 0 0 0
SMALL
GASTEIGER

@<TRIPOS>ATOM
      1  C1        15.9680   25.1930   33.3940 C.3     0  non0        0.0233
      2  C2        15.2270   25.6490   32.1440 C.3     0  non0        0.0245
      3  C3        14.3490   26.7320   32.6900 C.3     0  non0        0.1087
      4  N2        14.0300   26.3720   34.0350 N.am    0  non0       -0.2749
      5  C12       14.9060   25.2960   34.4790 C.3     0  non0        0.0938
      6  C13       13.0750   26.8830   34.8560 C.2     0  non0        0.2490
      7  O3        12.3470   27.7810   34.4620 O.2     0  non0       -0.2699
      8  C4        15.0790   28.0520   32.6670 C.3     0  non0        0.1744
      9  C5        14.3630   28.9870   31.8130 C.ar    0  non0        0.1166
     10  N1        13.2170   28.7240   31.2410 N.ar    0  non0       -0.2402
     11  C6        12.7660   29.8610   30.5920 C.ar    0  non0        0.0876
     12  C7        11.5450   29.9890   29.8990 C.ar    0  non0        0.0196
     13  C11       13.6250   30.9600   30.6380 C.ar    0  non0        0.0483
     14  C8        11.2150   31.2020   29.2780 C.ar    0  non0        0.0016
     15  C9        12.0850   32.2880   29.3360 C.ar    0  non0        0.0006
     16  C10       13.3040   32.1780   30.0170 C.ar    0  non0        0.0080
     17  S1        15.0350   30.5260   31.5280 S.2     0  non0       -0.0684
     18  O1        15.1540   28.5800   33.9970 O.3     0  non0       -0.3764
     19  H11       15.5290   29.4640   33.9700 H       0  non0        0.2109
     20  C14       12.9210   26.3600   36.2070 C.ar    0  non0        0.0538
     21  C15       12.0450   25.2910   36.4600 C.ar    0  non0        0.0076
     22  C16       11.8890   24.7990   37.7600 C.ar    0  non0        0.0370
     23  C17       12.6060   25.3640   38.8170 C.ar    0  non0        0.1385
     24  C18       13.4840   26.4240   38.5650 C.ar    0  non0        0.0370
     25  C19       13.6480   26.9210   37.2710 C.ar    0  non0        0.0076
     26  O2        12.4560   24.8900   40.0890 O.3     0  non0       -0.4774
     27  C20       13.7440   24.6240   40.6560 C.3     0  non0        0.1873
     28  C21       13.7260   24.7060   42.1220 C.3     0  non0        0.1020
     29  S2        13.4490   22.9100   42.1440 S.3     0  non0       -0.1326
     30  C22       14.1350   23.2180   40.4880 C.3     0  non0        0.1020
@<TRIPOS>BOND
     1    14    15   ar
     2    14    12   ar
     3    15    16   ar
     4    12    11   ar
     5    16    13   ar
     6    11    13   ar
     7    11    10   ar
     8    13    17   ar
     9    10     9   ar
    10    17     9   ar
    11     9     8    1
    12     2     3    1
    13     2     1    1
    14     8     3    1
    15     8    18    1
    16     3     4    1
    17     1     5    1
    18    19    18    1
    19     4     5    1
    20     4     6   am
    21     7     6    2
    22     6    20    1
    23    20    21   ar
    24    20    25   ar
    25    21    22   ar
    26    25    24   ar
    27    22    23   ar
    28    24    23   ar
    29    23    26    1
    30    26    27    1
    31    30    27    1
    32    30    29    1
    33    27    28    1
    34    28    29    1
@<TRIPOS>MOLECULE
26617127_Intermediate
 30 34 0 0 0
SMALL
GASTEIGER

@<TRIPOS>ATOM
      1  C1        16.8820   24.1490   32.7380 C.3     0  non0        0.0233
      2  C2        15.7810   25.1980   32.6620 C.3     0  non0        0.0245
      3  C3        16.5750   26.4650   32.5710 C.3     0  non0        0.1087
      4  N2        17.7830   26.2530   33.3030 N.am    0  non0       -0.2749
      5  C12       17.9500   24.8320   33.5810 C.3     0  non0        0.0938
      6  C13       18.6980   27.1620   33.7290 C.2     0  non0        0.2490
      7  O3        18.5370   28.3490   33.4910 O.2     0  non0       -0.2699
      8  C4        16.8910   26.7770   31.1300 C.3     0  non0        0.1744
      9  C5        16.2950   28.0540   30.7680 C.ar    0  non0        0.1166
     10  N1        15.6690   28.8330   31.6110 N.ar    0  non0       -0.2402
     11  C6        15.3230   30.0090   30.9670 C.ar    0  non0        0.0876
     12  C7        14.6770   31.1150   31.5550 C.ar    0  non0        0.0196
     13  C11       15.6480   30.0690   29.6110 C.ar    0  non0        0.0483
     14  C8        14.3790   32.2460   30.7810 C.ar    0  non0        0.0016
     15  C9        14.7120   32.2880   29.4280 C.ar    0  non0        0.0006
     16  C10       15.3510   31.1960   28.8280 C.ar    0  non0        0.0080
     17  S1        16.4090   28.5920   29.1560 S.2     0  non0       -0.0684
     18  O1        18.3120   26.8460   30.9560 O.3     0  non0       -0.3764
     19  H11       18.5440   26.5140   30.0850 H       0  non0        0.2109
     20  C14       19.8740   26.7210   34.4690 C.ar    0  non0        0.0538
     21  C15       19.8410   26.6410   35.8720 C.ar    0  non0        0.0076
     22  C16       20.9750   26.2290   36.5810 C.ar    0  non0        0.0370
     23  C17       22.1460   25.8910   35.9010 C.ar    0  non0        0.1385
     24  C18       22.1770   25.9630   34.5030 C.ar    0  non0        0.0370
     25  C19       21.0510   26.3710   33.7860 C.ar    0  non0        0.0076
     26  O2        23.2570   25.4910   36.5880 O.3     0  non0       -0.4774
     27  C20       23.7500   24.2670   36.0290 C.3     0  non0        0.1873
     28  C21       25.1890   24.0980   36.2650 C.3     0  non0        0.1020
     29  S2        24.7560   23.1380   37.7470 S.3     0  non0       -0.1326
     30  C22       23.2380   23.0930   36.7470 C.3     0  non0        0.1020
@<TRIPOS>BOND
     1    16    15   ar
     2    16    13   ar
     3    17    13   ar
     4    17     9   ar
     5    15    14   ar
     6    13    11   ar
     7    19    18    1
     8     9     8    1
     9     9    10   ar
    10    14    12   ar
    11    18     8    1
    12    11    12   ar
    13    11    10   ar
    14     8     3    1
    15     3     2    1
    16     3     4    1
    17     2     1    1
    18     1     5    1
    19     4     5    1
    20     4     6   am
    21     7     6    2
    22     6    20    1
    23    25    20   ar
    24    25    24   ar
    25    20    21   ar
    26    24    23   ar
    27    21    22   ar
    28    23    22   ar
    29    23    26    1
    30    27    28    1
    31    27    26    1
    32    27    30    1
    33    28    29    1
    34    30    29    1
@<TRIPOS>MOLECULE
11534736_Intermediate
 20 21 0 0 0
SMALL
GASTEIGER

@<TRIPOS>ATOM
      1  C8        15.5550   27.0210   29.9100 C.ar    0  non0        0.1245
      2  C9        14.8790   26.3210   30.9240 C.ar    0  non0        0.0200
      3  C10       15.3310   26.3840   32.2460 C.ar    0  non0        0.0014
      4  C11       16.4600   27.1420   32.5690 C.ar    0  non0       -0.0002
      5  C12       17.1370   27.8320   31.5580 C.ar    0  non0       -0.0015
      6  C13       16.6950   27.7750   30.2360 C.ar    0  non0        0.0158
      7  C14       17.3840   28.4680   29.2120 C.3     0  non0        0.1370
      8  N2        18.0710   29.1600   28.1910 N.3     0  non0       -0.1262
      9  S1        14.9760   26.9530   28.2390 S.O2    0  non0        0.0926
     10  O1        16.2510   26.6350   27.2230 O.2     0  non0       -0.1483
     11  O2        13.8390   25.7500   28.0960 O.2     0  non0       -0.1483
     12  N1        14.2970   28.4030   27.8320 N.pl3   0  non0       -0.0968
     13  C3        13.4380   29.0850   28.7680 C.ar    0  non0        0.0892
     14  C2        13.7550   30.3720   29.2090 C.ar    0  non0        0.0223
     15  C1        14.9720   31.0310   28.6990 C.3     0  non0        0.0348
     16  C7        12.9330   31.0320   30.1240 C.ar    0  non0        0.1374
     17  C6        11.7790   30.3990   30.5870 C.ar    0  non0        0.0294
     18  F1        13.2650   32.2880   30.5600 F       0  non0       -0.2045
     19  C5        11.4450   29.1130   30.1480 C.ar    0  non0        0.0037
     20  C4        12.2790   28.4580   29.2380 C.ar    0  non0        0.0179
@<TRIPOS>BOND
     1    10     9    2
     2    12     9    1
     3    12    13    1
     4    11     9    2
     5     8     7    1
     6     9     1    1
     7    15    14    1
     8    13    14   ar
     9    13    20   ar
    10    14    16   ar
    11     7     6    1
    12    20    19   ar
    13     1     6   ar
    14     1     2   ar
    15    16    18    1
    16    16    17   ar
    17    19    17   ar
    18     6     5   ar
    19     2     3   ar
    20     5     4   ar
    21     3     4   ar
@<TRIPOS>MOLECULE
11534736_Intermediate
 20 21 0 0 0
SMALL
GASTEIGER

@<TRIPOS>ATOM
      1  C8        26.4450   25.9410   32.5000 C.ar    0  non0        0.1245
      2  C9        26.5320   25.2470   33.7180 C.ar    0  non0        0.0200
      3  C10       27.0430   25.8810   34.8560 C.ar    0  non0        0.0014
      4  C11       27.4740   27.2080   34.7880 C.ar    0  non0       -0.0002
      5  C12       27.3950   27.8970   33.5740 C.ar    0  non0       -0.0015
      6  C13       26.8880   27.2740   32.4320 C.ar    0  non0        0.0158
      7  C14       26.8140   27.9670   31.2010 C.3     0  non0        0.1370
      8  N2        26.7400   28.6610   29.9730 N.3     0  non0       -0.1262
      9  S1        25.7850   25.1460   31.0630 S.O2    0  non0        0.0926
     10  O1        26.7990   25.4030   29.7730 O.2     0  non0       -0.1483
     11  O2        25.6520   23.5140   31.3470 O.2     0  non0       -0.1483
     12  N1        24.2940   25.7700   30.7240 N.pl3   0  non0       -0.0968
     13  C3        23.3560   26.0160   31.7900 C.ar    0  non0        0.0892
     14  C2        22.8520   27.3020   32.0040 C.ar    0  non0        0.0223
     15  C1        23.2800   28.4020   31.1190 C.3     0  non0        0.0348
     16  C7        21.9530   27.5490   33.0430 C.ar    0  non0        0.1374
     17  C6        21.5480   26.4940   33.8620 C.ar    0  non0        0.0294
     18  F1        21.4770   28.8180   33.2500 F       0  non0       -0.2045
     19  C5        22.0400   25.2000   33.6550 C.ar    0  non0        0.0037
     20  C4        22.9460   24.9660   32.6180 C.ar    0  non0        0.0179
@<TRIPOS>BOND
     1    10     9    2
     2     8     7    1
     3    12     9    1
     4    12    13    1
     5     9    11    2
     6     9     1    1
     7    15    14    1
     8     7     6    1
     9    13    14   ar
    10    13    20   ar
    11    14    16   ar
    12     6     1   ar
    13     6     5   ar
    14     1     2   ar
    15    20    19   ar
    16    16    18    1
    17    16    17   ar
    18     5     4   ar
    19    19    17   ar
    20     2     3   ar
    21     4     3   ar
@<TRIPOS>MOLECULE
11534736_Intermediate
 20 21 0 0 0
SMALL
GASTEIGER

@<TRIPOS>ATOM
      1  C8        19.2690   24.9000   40.9300 C.ar    0  non0        0.1245
      2  C9        18.8360   24.9490   42.2660 C.ar    0  non0        0.0200
      3  C10       19.4460   24.1450   43.2350 C.ar    0  non0        0.0014
      4  C11       20.4890   23.2850   42.8810 C.ar    0  non0       -0.0002
      5  C12       20.9150   23.2300   41.5500 C.ar    0  non0       -0.0015
      6  C13       20.3130   24.0270   40.5750 C.ar    0  non0        0.0158
      7  C14       20.7380   23.9680   39.2270 C.3     0  non0        0.1370
      8  N2        21.1640   23.9080   37.8820 N.3     0  non0       -0.1262
      9  S1        18.5090   25.9270   39.7060 S.O2    0  non0        0.0926
     10  O1        18.1310   25.0130   38.3720 O.2     0  non0       -0.1483
     11  O2        17.1220   26.5970   40.3300 O.2     0  non0       -0.1483
     12  N1        19.5540   27.1300   39.2700 N.pl3   0  non0       -0.0968
     13  C3        20.3210   27.8190   40.2770 C.ar    0  non0        0.0892
     14  C2        21.7170   27.8200   40.2240 C.ar    0  non0        0.0223
     15  C1        22.3980   27.1180   39.1190 C.3     0  non0        0.0348
     16  C7        22.4650   28.4750   41.2030 C.ar    0  non0        0.1374
     17  C6        21.8050   29.1450   42.2340 C.ar    0  non0        0.0294
     18  F1        23.8350   28.4540   41.1460 F       0  non0       -0.2045
     19  C5        20.4070   29.1580   42.2960 C.ar    0  non0        0.0037
     20  C4        19.6680   28.4920   41.3150 C.ar    0  non0        0.0179
@<TRIPOS>BOND
     1     8     7    1
     2    10     9    2
     3    15    14    1
     4     7     6    1
     5    12     9    1
     6    12    13    1
     7     9    11    2
     8     9     1    1
     9    14    13   ar
    10    14    16   ar
    11    13    20   ar
    12     6     1   ar
    13     6     5   ar
    14     1     2   ar
    15    18    16    1
    16    16    17   ar
    17    20    19   ar
    18     5     4   ar
    19    17    19   ar
    20     2     3   ar
    21     4     3   ar
@<TRIPOS>MOLECULE
24327827_Intermediate
 29 33 0 0 0
SMALL
GASTEIGER

@<TRIPOS>ATOM
      1  C1        22.0970   27.6500   37.3770 C.3     0  non0        0.2059
      2  C2        21.2110   26.4780   37.0460 C.2     0  non0        0.2704
      3  N1        21.2040   26.5700   35.6070 N.ar    0  non0       -0.2402
      4  C3        21.9460   27.6080   35.1760 C.ar    0  non0        0.1487
      5  C4        22.0730   27.8780   33.8020 C.ar    0  non0        0.0519
      6  C5        22.8340   28.9480   33.2900 C.ar    0  non0        0.0045
      7  C6        22.9100   29.1520   31.9030 C.ar    0  non0        0.0002
      8  C7        22.2310   28.2920   31.0260 C.ar    0  non0        0.0015
      9  C8        21.4720   27.2240   31.5280 C.ar    0  non0        0.0193
     10  C9        21.3870   27.0110   32.9130 C.ar    0  non0        0.0863
     11  N2        20.6470   25.9710   33.4030 N.ar    0  non0       -0.2221
     12  C10       20.5480   25.7410   34.7440 C.ar    0  non0        0.1786
     13  N3        22.5030   28.2930   36.1310 N.2     0  non0       -0.2414
     14  O1        20.6120   25.6260   37.6670 O.2     0  non0       -0.2691
     15  S1        19.6070   24.4200   35.3670 S.3     0  non0       -0.0721
     16  C11       20.8330   23.1390   34.9450 C.3     0  non0        0.0913
     17  C12       21.8350   23.0340   36.0370 C.ar    0  non0       -0.0108
     18  C13       21.4980   22.4130   37.2510 C.ar    0  non0       -0.0025
     19  C14       22.4390   22.3260   38.2850 C.ar    0  non0        0.0111
     20  C15       23.7210   22.8540   38.1140 C.ar    0  non0        0.0577
     21  C16       24.0590   23.4670   36.9020 C.ar    0  non0        0.0111
     22 Cl         24.9070   22.7520   39.4060 Cl      0  non0       -0.0822
     23  C17       23.1280   23.5580   35.8660 C.ar    0  non0       -0.0025
     24  C18       23.2900   27.1810   38.1080 C.ar    0  non0        0.0089
     25  C19       24.5250   27.1520   37.4550 C.ar    0  non0       -0.0019
     26  C20       25.6590   26.6970   38.1380 C.ar    0  non0       -0.0002
     27  C21       25.5570   26.2750   39.4670 C.ar    0  non0       -0.0000
     28  C22       24.3140   26.3160   40.1090 C.ar    0  non0       -0.0002
     29  C23       23.1790   26.7700   39.4370 C.ar    0  non0       -0.0019
@<TRIPOS>BOND
     1     8     9   ar
     2     8     7   ar
     3     9    10   ar
     4     7     6   ar
     5    10    11   ar
     6    10     5   ar
     7     6     5   ar
     8    11    12   ar
     9     5     4   ar
    10    12    15    1
    11    12     3   ar
    12    16    15    1
    13    16    17    1
    14     4     3   ar
    15     4    13    2
    16     3     2   am
    17    23    17   ar
    18    23    21   ar
    19    17    18   ar
    20    13     1    1
    21    21    20   ar
    22     2     1    1
    23     2    14    2
    24    18    19   ar
    25     1    24    1
    26    25    24   ar
    27    25    26   ar
    28    24    29   ar
    29    20    19   ar
    30    20    22    1
    31    26    27   ar
    32    29    28   ar
    33    27    28   ar
@<TRIPOS>MOLECULE
24327827_Intermediate
 29 33 0 0 0
SMALL
GASTEIGER

@<TRIPOS>ATOM
      1  C1        17.6140   27.1220   30.8060 C.3     0  non0        0.2059
      2  C2        18.0780   28.2280   31.7180 C.2     0  non0        0.2704
      3  N1        17.4580   29.3590   31.0740 N.ar    0  non0       -0.2402
      4  C3        16.7620   28.9840   29.9830 C.ar    0  non0        0.1487
      5  C4        16.0780   29.9360   29.2060 C.ar    0  non0        0.0519
      6  C5        15.3340   29.6060   28.0560 C.ar    0  non0        0.0045
      7  C6        14.6800   30.6160   27.3330 C.ar    0  non0        0.0002
      8  C7        14.7630   31.9530   27.7540 C.ar    0  non0        0.0015
      9  C8        15.5010   32.2880   28.9000 C.ar    0  non0        0.0193
     10  C9        16.1610   31.2870   29.6290 C.ar    0  non0        0.0863
     11  N2        16.8820   31.6140   30.7450 N.ar    0  non0       -0.2221
     12  C10       17.5320   30.6620   31.4730 C.ar    0  non0        0.1786
     13  N3        16.7950   27.7050   29.7470 N.2     0  non0       -0.2414
     14  O1        18.7600   28.3150   32.7170 O.2     0  non0       -0.2691
     15  S1        18.4470   31.0770   32.8910 S.3     0  non0       -0.0721
     16  C11       16.9900   31.3090   33.9590 C.3     0  non0        0.0913
     17  C12       16.5740   29.9990   34.5220 C.ar    0  non0       -0.0108
     18  C13       17.3210   29.4010   35.5510 C.ar    0  non0       -0.0025
     19  C14       16.9360   28.1600   36.0720 C.ar    0  non0        0.0111
     20  C15       15.8040   27.5090   35.5760 C.ar    0  non0        0.0577
     21  C16       15.0560   28.1080   34.5560 C.ar    0  non0        0.0111
     22 Cl         15.3160   25.9500   36.2220 Cl      0  non0       -0.0822
     23  C17       15.4310   29.3450   34.0300 C.ar    0  non0       -0.0025
     24  C18       16.8170   26.1460   31.5730 C.ar    0  non0        0.0089
     25  C19       15.4310   26.1070   31.3990 C.ar    0  non0       -0.0019
     26  C20       14.6670   25.1920   32.1320 C.ar    0  non0       -0.0002
     27  C21       15.2870   24.3200   33.0320 C.ar    0  non0       -0.0000
     28  C22       16.6760   24.3670   33.1910 C.ar    0  non0       -0.0002
     29  C23       17.4470   25.2750   32.4630 C.ar    0  non0       -0.0019
@<TRIPOS>BOND
     1     7     8   ar
     2     7     6   ar
     3     8     9   ar
     4     6     5   ar
     5     9    10   ar
     6     5    10   ar
     7     5     4   ar
     8    10    11   ar
     9    13     4    2
    10    13     1    1
    11     4     3   ar
    12    11    12   ar
    13     1    24    1
    14     1     2    1
    15     3    12   ar
    16     3     2   am
    17    25    24   ar
    18    25    26   ar
    19    12    15    1
    20    24    29   ar
    21     2    14    2
    22    26    27   ar
    23    29    28   ar
    24    15    16    1
    25    27    28   ar
    26    16    17    1
    27    23    17   ar
    28    23    21   ar
    29    17    18   ar
    30    21    20   ar
    31    18    19   ar
    32    20    19   ar
    33    20    22    1
@<TRIPOS>MOLECULE
24327827_Intermediate
 29 33 0 0 0
SMALL
GASTEIGER

@<TRIPOS>ATOM
      1  C1        17.1140   25.5700   30.3470 C.3     0  non0        0.2059
      2  C2        17.6690   26.9550   30.1380 C.2     0  non0        0.2704
      3  N1        17.2900   27.5670   31.3880 N.ar    0  non0       -0.2402
      4  C3        16.6300   26.7000   32.1810 C.ar    0  non0        0.1487
      5  C4        16.1700   27.0950   33.4490 C.ar    0  non0        0.0519
      6  C5        15.4740   26.2350   34.3230 C.ar    0  non0        0.0045
      7  C6        15.0460   26.7070   35.5740 C.ar    0  non0        0.0002
      8  C7        15.3100   28.0310   35.9570 C.ar    0  non0        0.0015
      9  C8        16.0030   28.8930   35.0920 C.ar    0  non0        0.0193
     10  C9        16.4340   28.4330   33.8380 C.ar    0  non0        0.0863
     11  N2        17.1080   29.2720   32.9950 N.ar    0  non0       -0.2221
     12  C10       17.5400   28.8520   31.7720 C.ar    0  non0        0.1786
     13  N3        16.4800   25.5170   31.6620 N.2     0  non0       -0.2414
     14  O1        18.2690   27.5380   29.2610 O.2     0  non0       -0.2691
     15  S1        18.3970   29.9190   30.7000 S.3     0  non0       -0.0721
     16  C11       19.9730   29.8240   31.6080 C.3     0  non0        0.0913
     17  C12       20.7380   28.6350   31.1510 C.ar    0  non0       -0.0108
     18  C13       21.3760   28.6410   29.9010 C.ar    0  non0       -0.0025
     19  C14       22.0860   27.5150   29.4650 C.ar    0  non0        0.0111
     20  C15       22.1660   26.3780   30.2730 C.ar    0  non0        0.0577
     21  C16       21.5350   26.3750   31.5230 C.ar    0  non0        0.0111
     22 Cl         23.0510   24.9600   29.7330 Cl      0  non0       -0.0822
     23  C17       20.8260   27.4930   31.9660 C.ar    0  non0       -0.0025
     24  C18       18.2060   24.5810   30.2800 C.ar    0  non0        0.0089
     25  C19       18.6500   23.9700   31.4560 C.ar    0  non0       -0.0019
     26  C20       19.6940   23.0400   31.4010 C.ar    0  non0       -0.0002
     27  C21       20.2890   22.7210   30.1770 C.ar    0  non0       -0.0000
     28  C22       19.8290   23.3360   29.0070 C.ar    0  non0       -0.0002
     29  C23       18.7870   24.2640   29.0510 C.ar    0  non0       -0.0019
@<TRIPOS>BOND
     1    28    29   ar
     2    28    27   ar
     3    29    24   ar
     4    14     2    2
     5    19    18   ar
     6    19    20   ar
     7    22    20    1
     8    18    17   ar
     9     2     1    1
    10     2     3   am
    11    27    26   ar
    12    20    21   ar
    13    24     1    1
    14    24    25   ar
    15     1    13    1
    16    15    16    1
    17    15    12    1
    18    17    16    1
    19    17    23   ar
    20     3    12   ar
    21     3     4   ar
    22    26    25   ar
    23    21    23   ar
    24    13     4    2
    25    12    11   ar
    26     4     5   ar
    27    11    10   ar
    28     5    10   ar
    29     5     6   ar
    30    10     9   ar
    31     6     7   ar
    32     9     8   ar
    33     7     8   ar
@<TRIPOS>MOLECULE
24804071_Intermediate
 29 30 0 0 0
SMALL
GASTEIGER

@<TRIPOS>ATOM
      1  C8        22.4120   24.5230   37.1030 C.2     0  non0        0.2707
      2  N2        21.6910   25.3700   36.3040 N.am    0  non0       -0.2809
      3  O7        22.0120   24.2580   38.2270 O.2     0  non0       -0.2707
      4  H9        22.0320   25.5790   35.3770 H       0  non0        0.1550
      5  C7        23.6820   23.9240   36.6020 C.3     0  non0        0.2897
      6  O2        24.1110   22.9090   37.4950 O.3     0  non0       -0.4641
      7  C6        23.9920   21.6900   36.8900 C.ar    0  non0        0.1570
      8  C5        24.8800   21.3030   35.8860 C.ar    0  non0        0.0385
      9  C4        24.7550   20.0560   35.2610 C.ar    0  non0        0.0032
     10  C3        23.7270   19.1930   35.6500 C.ar    0  non0        0.0018
     11  C2        22.8320   19.5710   36.6570 C.ar    0  non0        0.0225
     12  C1        22.9740   20.8150   37.2750 C.ar    0  non0        0.1200
     13  N1        22.0570   21.1920   38.3200 N.4     0  non0       -0.2082
     14  O8        21.2210   20.0570   38.6620 O.3     0  non0       -0.0828
     15  H2        21.4800   21.9540   37.9940 H       0  non0        0.2035
     16  O1        22.8020   21.6130   39.4890 O.3     0  non0       -0.2822
     17  H1        22.4780   22.4660   39.7860 H       0  non0        0.2447
     18  C9        20.5010   25.9280   36.7750 C.ar    0  non0        0.0508
     19  C10       20.5130   27.1690   37.4340 C.ar    0  non0        0.0213
     20  C11       19.3220   27.7220   37.9180 C.ar    0  non0        0.0812
     21  C12       18.1130   27.0460   37.7460 C.ar    0  non0        0.0132
     22  C13       18.1010   25.8140   37.0830 C.ar    0  non0        0.0812
     23  C14       19.2830   25.2530   36.5960 C.ar    0  non0        0.0213
     24  C16       19.3490   28.9970   38.6020 C.2     0  non0        0.3878
     25  O5        18.3030   29.5420   38.9160 O.co2   0  non0       -0.2406
     26  O6        20.5340   29.5870   38.8910 O.co2   0  non0       -0.2406
     27  C15       16.8450   25.1190   36.9070 C.2     0  non0        0.3878
     28  O3        15.9480   25.2600   37.7250 O.co2   0  non0       -0.2406
     29  O4        16.6610   24.3120   35.8330 O.co2   0  non0       -0.2406
@<TRIPOS>BOND
     1     9    10   ar
     2     9     8   ar
     3     4     2    1
     4    10    11   ar
     5    29    27   ar
     6     8     7   ar
     7     2    18    1
     8     2     1   am
     9    23    18   ar
    10    23    22   ar
    11     5     1    1
    12     5     6    1
    13    11    12   ar
    14    18    19   ar
    15     7    12   ar
    16     7     6    1
    17    27    22    1
    18    27    28   ar
    19    22    21   ar
    20     1     3    2
    21    12    13    1
    22    19    20   ar
    23    21    20   ar
    24    20    24    1
    25    15    13    1
    26    13    14    1
    27    13    16    1
    28    24    26   ar
    29    24    25   ar
    30    16    17    1
@<TRIPOS>MOLECULE
24804071_Intermediate
 29 30 0 0 0
SMALL
GASTEIGER

@<TRIPOS>ATOM
      1  C8        16.1990   26.3190   33.4970 C.2     0  non0        0.2707
      2  N2        16.5270   27.6020   33.1490 N.am    0  non0       -0.2809
      3  O7        15.0340   26.0260   33.7210 O.2     0  non0       -0.2707
      4  H9        17.4930   27.8290   32.9660 H       0  non0        0.1550
      5  C7        17.2620   25.2780   33.6010 C.3     0  non0        0.2897
      6  O2        16.6620   24.0030   33.7570 O.3     0  non0       -0.4641
      7  C6        16.8680   23.2600   32.6280 C.ar    0  non0        0.1570
      8  C5        18.1320   22.7500   32.3320 C.ar    0  non0        0.0385
      9  C4        18.3450   21.9950   31.1720 C.ar    0  non0        0.0032
     10  C3        17.2770   21.7530   30.3050 C.ar    0  non0        0.0018
     11  C2        16.0040   22.2590   30.5940 C.ar    0  non0        0.0225
     12  C1        15.8060   23.0050   31.7580 C.ar    0  non0        0.1200
     13  N1        14.4920   23.5120   32.0560 N.4     0  non0       -0.2082
     14  O8        13.5350   22.9560   31.1170 O.3     0  non0       -0.0828
     15  H2        14.5000   24.5180   31.9780 H       0  non0        0.2035
     16  O1        14.1210   23.1320   33.4040 O.3     0  non0       -0.2822
     17  H1        13.3710   22.5320   33.3730 H       0  non0        0.2447
     18  C9        15.5290   28.5730   33.0520 C.ar    0  non0        0.0508
     19  C10       15.1820   29.3470   34.1720 C.ar    0  non0        0.0213
     20  C11       14.1720   30.3120   34.0780 C.ar    0  non0        0.0812
     21  C12       13.5050   30.5150   32.8680 C.ar    0  non0        0.0132
     22  C13       13.8570   29.7500   31.7510 C.ar    0  non0        0.0812
     23  C14       14.8630   28.7840   31.8330 C.ar    0  non0        0.0213
     24  C16       13.8190   31.0960   35.2410 C.2     0  non0        0.3878
     25  O5        14.4020   30.9150   36.2990 O.co2   0  non0       -0.2406
     26  O6        12.8400   32.0300   35.1590 O.co2   0  non0       -0.2406
     27  C15       13.1640   29.9650   30.5000 C.2     0  non0        0.3878
     28  O3        12.2360   30.7590   30.4440 O.co2   0  non0       -0.2406
     29  O4        13.5440   29.2890   29.3890 O.co2   0  non0       -0.2406
@<TRIPOS>BOND
     1    29    27   ar
     2    10    11   ar
     3    10     9   ar
     4    28    27   ar
     5    27    22    1
     6    11    12   ar
     7    14    13    1
     8     9     8   ar
     9    22    23   ar
    10    22    21   ar
    11    12    13    1
    12    12     7   ar
    13    23    18   ar
    14    15    13    1
    15    13    16    1
    16     8     7   ar
    17     7     6    1
    18    21    20   ar
    19     4     2    1
    20    18     2    1
    21    18    19   ar
    22     2     1   am
    23    17    16    1
    24     1     5    1
    25     1     3    2
    26     5     6    1
    27    20    19   ar
    28    20    24    1
    29    26    24   ar
    30    24    25   ar
@<TRIPOS>MOLECULE
24804071_Intermediate
 29 30 0 0 0
SMALL
GASTEIGER

@<TRIPOS>ATOM
      1  C8        25.5750   26.1270   39.4250 C.2     0  non0        0.2707
      2  N2        24.2570   25.7610   39.4880 N.am    0  non0       -0.2809
      3  O7        25.8790   27.2510   39.0550 O.2     0  non0       -0.2707
      4  H9        24.0200   24.8290   39.7960 H       0  non0        0.1550
      5  C7        26.6390   25.1550   39.8090 C.3     0  non0        0.2897
      6  O2        27.8890   25.8220   39.8730 O.3     0  non0       -0.4641
      7  C6        28.3090   25.8790   41.1710 C.ar    0  non0        0.1570
      8  C5        28.7660   24.7330   41.8230 C.ar    0  non0        0.0385
      9  C4        29.1900   24.7890   43.1560 C.ar    0  non0        0.0032
     10  C3        29.1560   26.0080   43.8370 C.ar    0  non0        0.0018
     11  C2        28.7020   27.1640   43.1910 C.ar    0  non0        0.0225
     12  C1        28.2870   27.0930   41.8600 C.ar    0  non0        0.1200
     13  N1        27.8330   28.2890   41.1980 N.4     0  non0       -0.2082
     14  O8        28.0910   29.4380   42.0450 O.3     0  non0       -0.0828
     15  H2        26.8420   28.2130   41.0200 H       0  non0        0.2035
     16  O1        28.5420   28.4460   39.9430 O.3     0  non0       -0.2822
     17  H1        29.3620   27.9480   39.9740 H       0  non0        0.2447
     18  C9        23.2640   26.6740   39.1290 C.ar    0  non0        0.0508
     19  C10       22.8090   26.7420   37.8020 C.ar    0  non0        0.0213
     20  C11       21.8220   27.6660   37.4390 C.ar    0  non0        0.0812
     21  C12       21.2790   28.5250   38.3960 C.ar    0  non0        0.0132
     22  C13       21.7260   28.4520   39.7200 C.ar    0  non0        0.0812
     23  C14       22.7100   27.5340   40.0920 C.ar    0  non0        0.0213
     24  C16       21.3690   27.7310   36.0660 C.2     0  non0        0.3878
     25  O5        20.5210   28.5470   35.7430 O.co2   0  non0       -0.2406
     26  O6        21.8830   26.8850   35.1410 O.co2   0  non0       -0.2406
     27  C15       21.1600   29.3430   40.7070 C.2     0  non0        0.3878
     28  O3        20.3270   30.1740   40.3750 O.co2   0  non0       -0.2406
     29  O4        21.5500   29.2580   42.0020 O.co2   0  non0       -0.2406
@<TRIPOS>BOND
     1    26    24   ar
     2    25    24   ar
     3    24    20    1
     4    20    19   ar
     5    20    21   ar
     6    19    18   ar
     7    21    22   ar
     8     3     1    2
     9    18     2    1
    10    18    23   ar
    11     1     2   am
    12     1     5    1
    13     2     4    1
    14    22    23   ar
    15    22    27    1
    16     5     6    1
    17     6     7    1
    18    16    17    1
    19    16    13    1
    20    28    27   ar
    21    27    29   ar
    22    15    13    1
    23     7     8   ar
    24     7    12   ar
    25    13    12    1
    26    13    14    1
    27     8     9   ar
    28    12    11   ar
    29     9    10   ar
    30    11    10   ar
@<TRIPOS>MOLECULE
26661716_Intermediate
 17 19 0 0 0
SMALL
GASTEIGER

@<TRIPOS>ATOM
      1  C7        16.7280   29.7180   29.4780 C.ar    0  non0        0.1004
      2  C8        15.5550   29.1520   29.8630 C.ar    0  non0        0.1006
      3  N1        14.6360   30.1050   29.5120 N.ar    0  non0       -0.2875
      4  C9        13.2510   30.1040   29.6630 C.ar    0  non0        0.0815
      5  C10       12.5470   31.1650   29.2380 C.ar    0  non0        0.0191
      6  C11       13.2550   32.2830   28.6300 C.ar    0  non0        0.0046
      7  C12       14.5940   32.2770   28.4880 C.ar    0  non0        0.0374
      8  C13       15.3470   31.1540   28.9390 C.ar    0  non0        0.1478
      9  N2        16.6400   30.9070   28.9230 N.ar    0  non0       -0.2264
     10  C4        17.9260   29.0890   29.6580 C.ar    0  non0        0.0194
     11  C3        17.9810   27.8250   30.2510 C.ar    0  non0        0.0047
     12  C2        19.2120   27.1850   30.4310 C.ar    0  non0        0.0367
     13  C1        20.3860   27.8140   30.0100 C.ar    0  non0        0.1337
     14  C6        20.3430   29.0800   29.4240 C.ar    0  non0        0.0367
     15  C5        19.1110   29.7100   29.2470 C.ar    0  non0        0.0047
     16  O1        21.5200   27.2110   30.1690 O.3     0  non0       -0.5055
     17  H1        21.9480   27.1040   29.3160 H       0  non0        0.2922
@<TRIPOS>BOND
     1     7     6   ar
     2     7     8   ar
     3     6     5   ar
     4     9     8   ar
     5     9     1   ar
     6     8     3   ar
     7     5     4   ar
     8    15    14   ar
     9    15    10   ar
    10    17    16    1
    11    14    13   ar
    12     1    10    1
    13     1     2   ar
    14     3     4   ar
    15     3     2   ar
    16    10    11   ar
    17    13    16    1
    18    13    12   ar
    19    11    12   ar
@<TRIPOS>MOLECULE
26661716_Intermediate
 17 19 0 0 0
SMALL
GASTEIGER

@<TRIPOS>ATOM
      1  C7        14.0170   26.8370   28.5500 C.ar    0  non0        0.1004
      2  C8        13.0390   26.1010   27.9610 C.ar    0  non0        0.1006
      3  N1        13.4500   24.8160   28.2000 N.ar    0  non0       -0.2875
      4  C9        12.8590   23.6100   27.8320 C.ar    0  non0        0.0815
      5  C10       13.4520   22.4570   28.1830 C.ar    0  non0        0.0191
      6  C11       14.6950   22.5070   28.9390 C.ar    0  non0        0.0046
      7  C12       15.2610   23.6780   29.2920 C.ar    0  non0        0.0374
      8  C13       14.6370   24.9040   28.9200 C.ar    0  non0        0.1478
      9  N2        14.9800   26.1570   29.1310 N.ar    0  non0       -0.2264
     10  C4        13.9990   28.2020   28.5360 C.ar    0  non0        0.0194
     11  C3        12.9600   28.8920   27.9060 C.ar    0  non0        0.0047
     12  C2        12.9470   30.2910   27.8980 C.ar    0  non0        0.0367
     13  C1        13.9760   30.9950   28.5270 C.ar    0  non0        0.1337
     14  C6        15.0240   30.3160   29.1520 C.ar    0  non0        0.0367
     15  C5        15.0270   28.9210   29.1560 C.ar    0  non0        0.0047
     16  O1        13.9510   32.2880   28.5250 O.3     0  non0       -0.5055
     17  H1        14.8470   32.6260   28.4580 H       0  non0        0.2922
@<TRIPOS>BOND
     1     4     5   ar
     2     4     3   ar
     3    12    11   ar
     4    12    13   ar
     5    11    10   ar
     6     2     3   ar
     7     2     1   ar
     8     5     6   ar
     9     3     8   ar
    10    17    16    1
    11    16    13    1
    12    13    14   ar
    13    10     1    1
    14    10    15   ar
    15     1     9   ar
    16     8     9   ar
    17     8     7   ar
    18     6     7   ar
    19    14    15   ar
@<TRIPOS>MOLECULE
26661716_Intermediate
 17 19 0 0 0
SMALL
GASTEIGER

@<TRIPOS>ATOM
      1  C7        14.5630   27.6880   29.6190 C.ar    0  non0        0.1004
      2  C8        15.6990   28.4140   29.4550 C.ar    0  non0        0.1006
      3  N1        15.2360   29.7020   29.5050 N.ar    0  non0       -0.2875
      4  C9        15.9330   30.9020   29.3890 C.ar    0  non0        0.0815
      5  C10       15.2580   32.0610   29.4720 C.ar    0  non0        0.0191
      6  C11       13.8180   32.0240   29.6830 C.ar    0  non0        0.0046
      7  C12       13.1510   30.8580   29.7950 C.ar    0  non0        0.0374
      8  C13       13.8620   29.6270   29.7050 C.ar    0  non0        0.1478
      9  N2        13.4540   28.3760   29.7730 N.ar    0  non0       -0.2264
     10  C4        14.5740   26.3220   29.6240 C.ar    0  non0        0.0194
     11  C3        13.3890   25.6030   29.7960 C.ar    0  non0        0.0047
     12  C2        13.4070   24.2040   29.7970 C.ar    0  non0        0.0367
     13  C1        14.6180   23.5300   29.6210 C.ar    0  non0        0.1337
     14  C6        15.8090   24.2380   29.4570 C.ar    0  non0        0.0367
     15  C5        15.7800   25.6330   29.4550 C.ar    0  non0        0.0047
     16  O1        14.6260   22.2360   29.6110 O.3     0  non0       -0.5055
     17  H1        14.2450   21.9070   30.4290 H       0  non0        0.2922
@<TRIPOS>BOND
     1     4     5   ar
     2     4     3   ar
     3     2     3   ar
     4     2     1   ar
     5    15    14   ar
     6    15    10   ar
     7    14    13   ar
     8     5     6   ar
     9     3     8   ar
    10    16    13    1
    11    16    17    1
    12     1    10    1
    13     1     9   ar
    14    13    12   ar
    15    10    11   ar
    16     6     7   ar
    17     8     9   ar
    18     8     7   ar
    19    11    12   ar
@<TRIPOS>MOLECULE
49819547_Accepted
 39 43 0 0 0
SMALL
GASTEIGER

@<TRIPOS>ATOM
      1  C10       19.1520   26.9160   32.2450 C.3     0  non0        0.2411
      2  N1        18.2260   26.5670   33.1920 N.pl3   0  non0       -0.2761
      3  C18       16.8990   26.6990   32.9260 C.2     0  non0        0.1139
      4  C19       16.0210   26.3460   33.8820 C.3     0  non0        0.1729
      5  N3        14.6790   26.4500   33.6000 N.am    0  non0       -0.2434
      6  C27       14.1480   26.8140   32.3990 C.2     0  non0        0.3113
      7  N4        15.0320   27.1020   31.4120 N.am    0  non0       -0.2360
      8  C28       16.4720   27.2310   31.5860 C.2     0  non0        0.2518
      9  O2        17.2200   27.7040   30.7600 O.2     0  non0       -0.3154
     10  O3        12.9490   26.8710   32.2350 O.2     0  non0       -0.2521
     11  O4        18.7870   27.3450   31.1620 O.3     0  non0       -0.1532
     12  H28       14.5990   27.2270   30.5080 H       0  non0        0.1594
     13  C11       18.6560   26.0620   34.4650 C.3     0  non0        0.1197
     14  C12       19.2940   27.1570   35.2420 C.ar    0  non0       -0.0024
     15  C13       20.4270   26.8990   36.0310 C.ar    0  non0       -0.0026
     16  C14       21.0180   27.9260   36.7740 C.ar    0  non0       -0.0003
     17  C15       20.4900   29.2200   36.7320 C.ar    0  non0       -0.0000
     18  C16       19.3650   29.4770   35.9390 C.ar    0  non0       -0.0003
     19  C17       18.7660   28.4580   35.1950 C.ar    0  non0       -0.0026
     20  C1        20.6070   26.7690   32.5360 C.3     0  non0        0.0600
     21  C2        21.3900   27.7990   31.7380 C.3     0  non0        0.0339
     22  C3        21.7760   28.9260   32.6260 C.ar    0  non0        0.0119
     23  C4        22.8170   28.7720   33.5580 C.ar    0  non0       -0.0013
     24  C5        23.1710   29.8290   34.4020 C.ar    0  non0       -0.0001
     25  C6        22.4960   31.0490   34.3240 C.ar    0  non0        0.0031
     26  C7        21.4630   31.2060   33.3910 C.ar    0  non0        0.0366
     27  C8        21.1030   30.1580   32.5420 C.ar    0  non0        0.1347
     28  O1        20.1000   30.3130   31.6290 O.3     0  non0       -0.4717
     29  C9        18.9220   30.7410   32.2880 C.3     0  non0        0.2525
     30  N2        16.5650   25.8850   35.1330 N.3     0  non0       -0.3019
     31  H19       16.1180   26.1400   36.0030 H       0  non0        0.1206
     32  H20       17.3930   25.3060   35.1410 H       0  non0        0.1206
     33  C20       13.8140   26.1390   34.6910 C.3     0  non0        0.1232
     34  C21       13.2820   27.3990   35.2750 C.ar    0  non0       -0.0022
     35  C22       11.8970   27.5780   35.4310 C.ar    0  non0       -0.0026
     36  C23       11.3970   28.7680   35.9680 C.ar    0  non0       -0.0003
     37  C24       12.2730   29.7880   36.3580 C.ar    0  non0       -0.0000
     38  C25       13.6510   29.6040   36.2080 C.ar    0  non0       -0.0003
     39  C26       14.1600   28.4200   35.6760 C.ar    0  non0       -0.0026
@<TRIPOS>BOND
     1    12     7    1
     2     9    11    1
     3     9     8    1
     4    11     1    1
     5     7     8    1
     6     7     6   am
     7     8     3    2
     8    28    29    1
     9    28    27    1
    10    21    20    1
    11    21    22    1
    12    10     6    2
    13     1    20    1
    14     1     2    1
    15     6     5   am
    16    27    22   ar
    17    27    26   ar
    18    22    23   ar
    19     3     2    1
    20     3     4    1
    21     2    13    1
    22    26    25   ar
    23    23    24   ar
    24     5     4    1
    25     5    33    1
    26     4    30    1
    27    25    24   ar
    28    13    14    1
    29    33    34    1
    30    30    32    1
    31    30    31    1
    32    19    14   ar
    33    19    18   ar
    34    14    15   ar
    35    34    35   ar
    36    34    39   ar
    37    35    36   ar
    38    39    38   ar
    39    18    17   ar
    40    36    37   ar
    41    15    16   ar
    42    38    37   ar
    43    17    16   ar
@<TRIPOS>MOLECULE
49819547_Accepted
 39 43 0 0 0
SMALL
GASTEIGER

@<TRIPOS>ATOM
      1  C10       23.9460   27.2760   33.3940 C.3     0  non0        0.2411
      2  N1        22.7080   27.4860   33.9380 N.pl3   0  non0       -0.2761
      3  C18       22.4700   28.6030   34.6770 C.2     0  non0        0.1139
      4  C19       21.2410   28.7740   35.1950 C.3     0  non0        0.1729
      5  N3        20.9940   29.9190   35.9140 N.am    0  non0       -0.2434
      6  C27       21.8710   30.9480   36.0920 C.2     0  non0        0.3113
      7  N4        23.0870   30.8090   35.5100 N.am    0  non0       -0.2360
      8  C28       23.5840   29.5930   34.8810 C.2     0  non0        0.2518
      9  O2        24.7390   29.4090   34.5690 O.2     0  non0       -0.3154
     10  O3        21.5650   31.9280   36.7350 O.2     0  non0       -0.2521
     11  O4        24.8380   28.0900   33.5700 O.3     0  non0       -0.1532
     12  H28       23.6480   31.6480   35.5460 H       0  non0        0.1594
     13  C11       21.6590   26.5280   33.7310 C.3     0  non0        0.1197
     14  C12       21.9740   25.2810   34.4760 C.ar    0  non0       -0.0024
     15  C13       21.6720   24.0270   33.9190 C.ar    0  non0       -0.0026
     16  C14       21.9550   22.8540   34.6280 C.ar    0  non0       -0.0003
     17  C15       22.5460   22.9200   35.8920 C.ar    0  non0       -0.0000
     18  C16       22.8530   24.1700   36.4440 C.ar    0  non0       -0.0003
     19  C17       22.5730   25.3470   35.7460 C.ar    0  non0       -0.0026
     20  C1        24.2060   26.0510   32.5830 C.3     0  non0        0.0600
     21  C2        25.6750   25.6760   32.6860 C.3     0  non0        0.0339
     22  C3        25.8320   24.5400   33.6300 C.ar    0  non0        0.0119
     23  C4        25.4540   23.2410   33.2480 C.ar    0  non0       -0.0013
     24  C5        25.5910   22.1750   34.1420 C.ar    0  non0       -0.0001
     25  C6        26.1090   22.3900   35.4200 C.ar    0  non0        0.0031
     26  C7        26.4910   23.6820   35.8000 C.ar    0  non0        0.0366
     27  C8        26.3610   24.7540   34.9150 C.ar    0  non0        0.1347
     28  O1        26.7410   26.0130   35.2830 O.3     0  non0       -0.4717
     29  C9        26.0490   26.3900   36.4600 C.3     0  non0        0.2525
     30  N2        20.2770   27.7320   34.9520 N.3     0  non0       -0.3019
     31  H19       20.5800   26.7710   34.8790 H       0  non0        0.1206
     32  H20       19.2980   27.9620   34.8540 H       0  non0        0.1206
     33  C20       19.6960   29.9870   36.5030 C.3     0  non0        0.1232
     34  C21       19.7940   29.6790   37.9540 C.ar    0  non0       -0.0022
     35  C22       20.4200   28.4980   38.3870 C.ar    0  non0       -0.0026
     36  C23       20.5000   28.2030   39.7510 C.ar    0  non0       -0.0003
     37  C24       19.9620   29.0840   40.6960 C.ar    0  non0       -0.0000
     38  C25       19.3460   30.2630   40.2630 C.ar    0  non0       -0.0003
     39  C26       19.2630   30.5680   38.9040 C.ar    0  non0       -0.0026
@<TRIPOS>BOND
     1    20    21    1
     2    20     1    1
     3    21    22    1
     4    23    22   ar
     5    23    24   ar
     6     1    11    1
     7     1     2    1
     8    11     9    1
     9    22    27   ar
    10    13     2    1
    11    13    14    1
    12    15    14   ar
    13    15    16   ar
    14     2     3    1
    15    24    25   ar
    16    14    19   ar
    17     9     8    1
    18    16    17   ar
    19     3     8    2
    20     3     4    1
    21    32    30    1
    22    31    30    1
    23     8     7    1
    24    27    28    1
    25    27    26   ar
    26    30     4    1
    27     4     5    1
    28    28    29    1
    29    25    26   ar
    30     7    12    1
    31     7     6   am
    32    19    18   ar
    33    17    18   ar
    34     5     6   am
    35     5    33    1
    36     6    10    2
    37    33    34    1
    38    34    35   ar
    39    34    39   ar
    40    35    36   ar
    41    39    38   ar
    42    36    37   ar
    43    38    37   ar
@<TRIPOS>MOLECULE
49819547_Accepted
 39 43 0 0 0
SMALL
GASTEIGER

@<TRIPOS>ATOM
      1  C10       17.3110   20.7630   35.4600 C.3     0  non0        0.2411
      2  N1        18.5540   21.0690   35.9440 N.pl3   0  non0       -0.2761
      3  C18       18.6790   21.7820   37.0950 C.2     0  non0        0.1139
      4  C19       19.9180   22.0630   37.5380 C.3     0  non0        0.1729
      5  N3        20.0420   22.7570   38.7190 N.am    0  non0       -0.2434
      6  C27       19.0130   23.1280   39.5320 C.2     0  non0        0.3113
      7  N4        17.7670   22.7830   39.1230 N.am    0  non0       -0.2360
      8  C28       17.4370   22.2240   37.8190 C.2     0  non0        0.2518
      9  O2        16.3120   22.1300   37.3810 O.2     0  non0       -0.3154
     10  O3        19.2140   23.7310   40.5640 O.2     0  non0       -0.2521
     11  O4        16.3130   21.1290   36.0610 O.3     0  non0       -0.1532
     12  H28       17.0540   22.9500   39.8180 H       0  non0        0.1594
     13  C11       19.7270   20.6380   35.2370 C.3     0  non0        0.1197
     14  C12       19.8550   21.4130   33.9740 C.ar    0  non0       -0.0024
     15  C13       20.3330   20.7920   32.8080 C.ar    0  non0       -0.0026
     16  C14       20.4680   21.5250   31.6240 C.ar    0  non0       -0.0003
     17  C15       20.1230   22.8780   31.5900 C.ar    0  non0       -0.0000
     18  C16       19.6400   23.4940   32.7510 C.ar    0  non0       -0.0003
     19  C17       19.5030   22.7720   33.9390 C.ar    0  non0       -0.0026
     20  C1        17.1740   19.9800   34.1980 C.3     0  non0        0.0600
     21  C2        15.8780   20.3610   33.5020 C.3     0  non0        0.0339
     22  C3        16.1730   21.2880   32.3790 C.ar    0  non0        0.0119
     23  C4        16.7610   20.8070   31.1960 C.ar    0  non0       -0.0013
     24  C5        17.0490   21.6830   30.1450 C.ar    0  non0       -0.0001
     25  C6        16.7510   23.0420   30.2580 C.ar    0  non0        0.0031
     26  C7        16.1600   23.5220   31.4330 C.ar    0  non0        0.0366
     27  C8        15.8660   22.6560   32.4890 C.ar    0  non0        0.1347
     28  O1        15.2830   23.1230   33.6320 O.3     0  non0       -0.4717
     29  C9        16.0760   24.1630   34.1760 C.3     0  non0        0.2525
     30  N2        21.0210   21.6110   36.7300 N.3     0  non0       -0.3019
     31  H19       21.9510   21.9640   36.9030 H       0  non0        0.1206
     32  H20       20.8630   20.9420   35.9900 H       0  non0        0.1206
     33  C20       21.3820   23.0910   39.0770 C.3     0  non0        0.1232
     34  C21       21.6310   24.5250   38.7780 C.ar    0  non0       -0.0022
     35  C22       21.3590   25.0400   37.4990 C.ar    0  non0       -0.0026
     36  C23       21.6060   26.3860   37.2140 C.ar    0  non0       -0.0003
     37  C24       22.1220   27.2320   38.2020 C.ar    0  non0       -0.0000
     38  C25       22.3860   26.7190   39.4760 C.ar    0  non0       -0.0003
     39  C26       22.1400   25.3780   39.7710 C.ar    0  non0       -0.0026
@<TRIPOS>BOND
     1    24    25   ar
     2    24    23   ar
     3    25    26   ar
     4    23    22   ar
     5    26    27   ar
     6    17    16   ar
     7    17    18   ar
     8    16    15   ar
     9    22    27   ar
    10    22    21    1
    11    27    28    1
    12    18    19   ar
    13    15    14   ar
    14    21    20    1
    15    28    29    1
    16    19    14   ar
    17    14    13    1
    18    20     1    1
    19    13     2    1
    20     1     2    1
    21     1    11    1
    22     2     3    1
    23    32    30    1
    24    11     9    1
    25    30    31    1
    26    30     4    1
    27     3     4    1
    28     3     8    2
    29    36    35   ar
    30    36    37   ar
    31     9     8    1
    32    35    34   ar
    33     4     5    1
    34     8     7    1
    35    37    38   ar
    36     5    33    1
    37     5     6   am
    38    34    33    1
    39    34    39   ar
    40     7     6   am
    41     7    12    1
    42    38    39   ar
    43     6    10    2
@<TRIPOS>MOLECULE
24288718_Intermediate
 25 26 0 0 0
SMALL
GASTEIGER

@<TRIPOS>ATOM
      1  C1        25.5490   21.9990   39.0650 C.3     0  non0        0.0332
      2  C2        25.3140   23.3240   39.7730 C.3     0  non0        0.1714
      3  C3        24.8740   23.0670   41.1760 C.2     0  non0        0.2423
      4  N1        24.4260   21.8250   41.5350 N.am    0  non0       -0.3026
      5  H5        24.4130   21.1200   40.8130 H       0  non0        0.1495
      6  O1        24.9140   23.9650   42.0020 O.2     0  non0       -0.2733
      7  C4        23.9960   21.5720   42.9080 C.3     0  non0        0.0941
      8  C5        22.6510   20.8650   42.8950 C.3     0  non0        0.0476
      9  C6        21.5790   21.8450   43.1570 C.ar    0  non0       -0.0205
     10  C7        20.2510   21.4900   42.9020 C.ar    0  non0       -0.0042
     11  C8        19.2310   22.4190   43.1350 C.ar    0  non0       -0.0003
     12  C9        19.5350   23.6900   43.6240 C.ar    0  non0       -0.0000
     13  C10       20.8680   24.0290   43.8820 C.ar    0  non0       -0.0003
     14  C11       21.8940   23.1110   43.6520 C.ar    0  non0       -0.0042
     15  N2        24.2760   24.0790   39.0660 N.pl3   0  non0       -0.1872
     16  C12       22.8780   23.7330   39.2440 C.ar    0  non0        0.0689
     17  C13       22.3550   22.5680   38.6560 C.ar    0  non0        0.0161
     18  C14       21.0040   22.2410   38.8190 C.ar    0  non0        0.0013
     19  C15       20.1650   23.0690   39.5710 C.ar    0  non0        0.0001
     20  C16       20.6880   24.2230   40.1620 C.ar    0  non0        0.0013
     21  C17       22.0350   24.5580   40.0070 C.ar    0  non0        0.0161
     22  S1        24.6970   25.3280   38.0690 S.O2    0  non0        0.0592
     23  C18       24.9010   26.8060   39.0260 C.3     0  non0        0.1999
     24  O2        23.5000   25.5620   36.9400 O.2     0  non0       -0.1542
     25  O3        26.1210   24.9650   37.2980 O.2     0  non0       -0.1542
@<TRIPOS>BOND
     1    24    22    2
     2    25    22    2
     3    22    23    1
     4    22    15    1
     5    17    18   ar
     6    17    16   ar
     7    18    19   ar
     8     1     2    1
     9    15    16    1
    10    15     2    1
    11    16    21   ar
    12    19    20   ar
    13     2     3    1
    14    21    20   ar
    15     5     4    1
    16     3     4   am
    17     3     6    2
    18     4     7    1
    19     8     7    1
    20     8     9    1
    21    10    11   ar
    22    10     9   ar
    23    11    12   ar
    24     9    14   ar
    25    12    13   ar
    26    14    13   ar
@<TRIPOS>MOLECULE
24288718_Intermediate
 25 26 0 0 0
SMALL
GASTEIGER

@<TRIPOS>ATOM
      1  C1        23.1890   27.3840   38.1850 C.3     0  non0        0.0332
      2  C2        21.7380   27.0320   37.8950 C.3     0  non0        0.1714
      3  C3        21.6810   26.0370   36.7830 C.2     0  non0        0.2423
      4  N1        22.7750   25.8420   35.9840 N.am    0  non0       -0.3026
      5  H5        23.5930   26.3970   36.1890 H       0  non0        0.1495
      6  O1        20.6590   25.3970   36.5880 O.2     0  non0       -0.2733
      7  C4        22.7210   24.8680   34.8970 C.3     0  non0        0.0941
      8  C5        23.2430   25.5060   33.6200 C.3     0  non0        0.0476
      9  C6        22.1050   25.9110   32.7720 C.ar    0  non0       -0.0205
     10  C7        22.3320   26.7590   31.6830 C.ar    0  non0       -0.0042
     11  C8        21.2560   27.1570   30.8840 C.ar    0  non0       -0.0003
     12  C9        19.9640   26.7090   31.1660 C.ar    0  non0       -0.0000
     13  C10       19.7540   25.8550   32.2550 C.ar    0  non0       -0.0003
     14  C11       20.8200   25.4500   33.0600 C.ar    0  non0       -0.0042
     15  N2        21.0090   28.2420   37.5040 N.pl3   0  non0       -0.1872
     16  C12       21.1430   28.7690   36.1590 C.ar    0  non0        0.0689
     17  C13       22.3190   29.4360   35.7730 C.ar    0  non0        0.0161
     18  C14       22.4430   29.9540   34.4780 C.ar    0  non0        0.0013
     19  C15       21.4000   29.8070   33.5580 C.ar    0  non0        0.0001
     20  C16       20.2340   29.1360   33.9410 C.ar    0  non0        0.0013
     21  C17       20.1010   28.6140   35.2300 C.ar    0  non0        0.0161
     22  S1        20.0300   29.0050   38.5960 S.O2    0  non0        0.0592
     23  C18       18.4440   28.2130   38.6220 C.3     0  non0        0.1999
     24  O2        19.8460   30.5960   38.1560 O.2     0  non0       -0.1542
     25  O3        20.7160   28.9230   40.1050 O.2     0  non0       -0.1542
@<TRIPOS>BOND
     1    11    12   ar
     2    11    10   ar
     3    12    13   ar
     4    10     9   ar
     5    13    14   ar
     6     9    14   ar
     7     9     8    1
     8    19    20   ar
     9    19    18   ar
    10     8     7    1
    11    20    21   ar
    12    18    17   ar
    13     7     4    1
    14    21    16   ar
    15    17    16   ar
    16     4     5    1
    17     4     3   am
    18    16    15    1
    19     6     3    2
    20     3     2    1
    21    15     2    1
    22    15    22    1
    23     2     1    1
    24    24    22    2
    25    22    23    1
    26    22    25    2
@<TRIPOS>MOLECULE
24288718_Intermediate
 25 26 0 0 0
SMALL
GASTEIGER

@<TRIPOS>ATOM
      1  C1        17.4770   22.8190   39.6330 C.3     0  non0        0.0332
      2  C2        18.5140   23.8320   40.0930 C.3     0  non0        0.1714
      3  C3        18.4470   25.0420   39.2210 C.2     0  non0        0.2423
      4  N1        17.8020   24.9820   38.0150 N.am    0  non0       -0.3026
      5  H5        17.3910   24.0940   37.7640 H       0  non0        0.1495
      6  O1        18.9650   26.0860   39.5850 O.2     0  non0       -0.2733
      7  C4        17.7340   26.1660   37.1630 C.3     0  non0        0.0941
      8  C5        18.1300   25.7910   35.7440 C.3     0  non0        0.0476
      9  C6        19.5320   26.1850   35.5060 C.ar    0  non0       -0.0205
     10  C7        20.2010   25.6840   34.3850 C.ar    0  non0       -0.0042
     11  C8        21.5350   26.0430   34.1600 C.ar    0  non0       -0.0003
     12  C9        22.1930   26.8990   35.0450 C.ar    0  non0       -0.0000
     13  C10       21.5070   27.3980   36.1580 C.ar    0  non0       -0.0003
     14  C11       20.1770   27.0470   36.3930 C.ar    0  non0       -0.0042
     15  N2        19.8520   23.2400   40.0010 N.pl3   0  non0       -0.1872
     16  C12       20.5140   23.1360   38.7140 C.ar    0  non0        0.0689
     17  C13       20.0930   22.1780   37.7750 C.ar    0  non0        0.0161
     18  C14       20.7400   22.0720   36.5390 C.ar    0  non0        0.0013
     19  C15       21.8070   22.9200   36.2260 C.ar    0  non0        0.0001
     20  C16       22.2190   23.8780   37.1590 C.ar    0  non0        0.0013
     21  C17       21.5800   23.9930   38.3950 C.ar    0  non0        0.0161
     22  S1        20.6070   22.6920   41.3650 S.O2    0  non0        0.0592
     23  C18       21.4270   24.0430   42.1690 C.3     0  non0        0.1999
     24  O2        21.7260   21.5350   40.9520 O.2     0  non0       -0.1542
     25  O3        19.4830   22.0340   42.3940 O.2     0  non0       -0.1542
@<TRIPOS>BOND
     1    11    10   ar
     2    11    12   ar
     3    10     9   ar
     4    12    13   ar
     5     9     8    1
     6     9    14   ar
     7     8     7    1
     8    13    14   ar
     9    19    18   ar
    10    19    20   ar
    11    18    17   ar
    12    20    21   ar
    13     7     4    1
    14     5     4    1
    15    17    16   ar
    16     4     3   am
    17    21    16   ar
    18    16    15    1
    19     3     6    2
    20     3     2    1
    21     1     2    1
    22    15     2    1
    23    15    22    1
    24    24    22    2
    25    22    23    1
    26    22    25    2
@<TRIPOS>MOLECULE
17460430_Accepted
 25 28 0 0 0
SMALL
GASTEIGER

@<TRIPOS>ATOM
      1  C1        12.9220   30.0190   33.3010 C.3     0  non0       -0.0592
      2  C2        14.0570   29.8980   32.2610 C.3     0  non0        0.0496
      3  N1        14.9100   31.1610   32.2600 N.3     0  non0       -0.2732
      4  C3        15.4230   31.5230   33.6480 C.3     0  non0        0.0496
      5  C4        14.2400   31.6050   34.6240 C.3     0  non0       -0.0592
      6  N2        13.4660   30.3630   34.6190 N.4     0  non0        0.3915
      7  H9        12.6840   30.4940   35.2460 H       0  non0       -0.0791
      8  C5        14.3300   29.2820   35.0560 C.3     0  non0       -0.0498
      9  C6        14.3110   29.2010   36.5400 C.ar    0  non0       -0.0432
     10  C7        13.0990   29.1080   37.2330 C.ar    0  non0       -0.0063
     11  C8        13.0880   29.0600   38.6310 C.ar    0  non0       -0.0004
     12  C9        14.2860   29.0960   39.3640 C.ar    0  non0       -0.0000
     13  C10       14.2890   29.0540   40.7680 C.ar    0  non0       -0.0000
     14  C14       15.5140   29.1690   38.6720 C.ar    0  non0       -0.0004
     15  C11       15.4900   29.0830   41.4780 C.ar    0  non0       -0.0000
     16  C12       16.7010   29.1510   40.7960 C.ar    0  non0       -0.0000
     17  C13       16.7140   29.1920   39.4010 C.ar    0  non0       -0.0000
     18  C15       15.5070   29.2170   37.2700 C.ar    0  non0       -0.0063
     19  C16       14.1090   32.2620   31.7590 C.3     0  non0        0.1006
     20  C17       14.1570   32.2740   30.2840 C.ar    0  non0        0.0130
     21  C18       12.9980   32.2850   29.5130 C.ar    0  non0        0.0002
     22  C19       13.1250   32.2730   28.1190 C.ar    0  non0        0.0204
     23  C20       14.3960   32.2720   27.5430 C.ar    0  non0        0.0989
     24  N3        15.5110   32.2770   28.2890 N.ar    0  non0       -0.2426
     25  C21       15.3770   32.2750   29.6320 C.ar    0  non0        0.0959
@<TRIPOS>BOND
     1    23    22   ar
     2    23    24   ar
     3    22    21   ar
     4    24    25   ar
     5    21    20   ar
     6    25    20   ar
     7    20    19    1
     8    19     3    1
     9     3     2    1
    10     3     4    1
    11     2     1    1
    12     1     6    1
    13     4     5    1
    14     6     5    1
    15     6     8    1
    16     6     7    1
    17     8     9    1
    18     9    10   ar
    19     9    18   ar
    20    10    11   ar
    21    18    14   ar
    22    11    12   ar
    23    14    12   ar
    24    14    17   ar
    25    12    13   ar
    26    17    16   ar
    27    13    15   ar
    28    16    15   ar
@<TRIPOS>MOLECULE
17460430_Accepted
 25 28 0 0 0
SMALL
GASTEIGER

@<TRIPOS>ATOM
      1  C1        20.6790   29.3020   31.3550 C.3     0  non0       -0.0592
      2  C2        19.5000   29.8620   32.1810 C.3     0  non0        0.0496
      3  N1        18.2180   29.8350   31.3580 N.3     0  non0       -0.2732
      4  C3        17.9240   28.4590   30.7750 C.3     0  non0        0.0496
      5  C4        19.1470   27.9660   29.9870 C.3     0  non0       -0.0592
      6  N2        20.3490   27.9760   30.8210 N.4     0  non0        0.3915
      7  H9        21.1210   27.6830   30.2380 H       0  non0       -0.0791
      8  C5        20.1430   27.0690   31.9350 C.3     0  non0       -0.0498
      9  C6        20.5070   25.6890   31.5250 C.ar    0  non0       -0.0432
     10  C7        21.7640   25.4170   30.9760 C.ar    0  non0       -0.0063
     11  C8        22.0900   24.1190   30.5670 C.ar    0  non0       -0.0004
     12  C9        21.1700   23.0660   30.7050 C.ar    0  non0       -0.0000
     13  C10       21.4810   21.7600   30.2930 C.ar    0  non0       -0.0000
     14  C14       19.9060   23.3280   31.2760 C.ar    0  non0       -0.0004
     15  C11       20.5560   20.7260   30.4460 C.ar    0  non0       -0.0000
     16  C12       19.3110   20.9830   31.0130 C.ar    0  non0       -0.0000
     17  C13       18.9880   22.2760   31.4280 C.ar    0  non0       -0.0000
     18  C15       19.5960   24.6360   31.6810 C.ar    0  non0       -0.0063
     19  C16       18.3460   30.7830   30.2670 C.3     0  non0        0.1006
     20  C17       17.0150   31.3230   29.9260 C.ar    0  non0        0.0130
     21  C18       16.1520   31.8140   30.9010 C.ar    0  non0        0.0002
     22  C19       14.8960   32.2880   30.5020 C.ar    0  non0        0.0204
     23  C20       14.5550   32.2790   29.1490 C.ar    0  non0        0.0989
     24  N3        15.3960   31.8190   28.2090 N.ar    0  non0       -0.2426
     25  C21       16.5980   31.3510   28.6080 C.ar    0  non0        0.0959
@<TRIPOS>BOND
     1    24    25   ar
     2    24    23   ar
     3    25    20   ar
     4    23    22   ar
     5    20    19    1
     6    20    21   ar
     7     5     4    1
     8     5     6    1
     9     7     6    1
    10    19     3    1
    11    13    15   ar
    12    13    12   ar
    13    15    16   ar
    14    22    21   ar
    15    11    12   ar
    16    11    10   ar
    17    12    14   ar
    18     4     3    1
    19     6     1    1
    20     6     8    1
    21    10     9   ar
    22    16    17   ar
    23    14    17   ar
    24    14    18   ar
    25     1     2    1
    26     3     2    1
    27     9    18   ar
    28     9     8    1
@<TRIPOS>MOLECULE
17460430_Accepted
 25 28 0 0 0
SMALL
GASTEIGER

@<TRIPOS>ATOM
      1  C1        15.4990   29.7400   34.1510 C.3     0  non0       -0.0592
      2  C2        14.4080   30.6390   33.5310 C.3     0  non0        0.0496
      3  N1        14.2370   30.3190   32.0510 N.3     0  non0       -0.2732
      4  C3        13.9910   28.8370   31.7960 C.3     0  non0        0.0496
      5  C4        15.1050   28.0140   32.4580 C.3     0  non0       -0.0592
      6  N2        15.2150   28.3260   33.8830 N.4     0  non0        0.3915
      7  H9        15.9870   27.7870   34.2500 H       0  non0       -0.0791
      8  C5        13.9630   27.9790   34.5280 C.3     0  non0       -0.0498
      9  C6        13.9840   26.5430   34.9100 C.ar    0  non0       -0.0432
     10  C7        15.0340   26.0240   35.6740 C.ar    0  non0       -0.0063
     11  C8        15.0600   24.6650   36.0060 C.ar    0  non0       -0.0004
     12  C9        14.0350   23.8000   35.5900 C.ar    0  non0       -0.0000
     13  C10       14.0520   22.4330   35.9110 C.ar    0  non0       -0.0000
     14  C14       12.9610   24.3200   34.8360 C.ar    0  non0       -0.0004
     15  C11       13.0190   21.5910   35.4950 C.ar    0  non0       -0.0000
     16  C12       11.9580   22.1040   34.7550 C.ar    0  non0       -0.0000
     17  C13       11.9270   23.4610   34.4290 C.ar    0  non0       -0.0000
     18  C15       12.9510   25.6850   34.5100 C.ar    0  non0       -0.0063
     19  C16       15.4410   30.7170   31.3470 C.3     0  non0        0.1006
     20  C17       15.1100   31.0300   29.9430 C.ar    0  non0        0.0130
     21  C18       15.7840   30.4330   28.8810 C.ar    0  non0        0.0002
     22  C19       15.4280   30.7980   27.5770 C.ar    0  non0        0.0204
     23  C20       14.4040   31.7230   27.3760 C.ar    0  non0        0.0989
     24  N3        13.7450   32.2850   28.4010 N.ar    0  non0       -0.2426
     25  C21       14.1060   31.9370   29.6540 C.ar    0  non0        0.0959
@<TRIPOS>BOND
     1    23    22   ar
     2    23    24   ar
     3    22    21   ar
     4    24    25   ar
     5    21    20   ar
     6    25    20   ar
     7    20    19    1
     8    19     3    1
     9     4     3    1
    10     4     5    1
    11     3     2    1
    12     5     6    1
    13     2     1    1
    14     6     1    1
    15     6     7    1
    16     6     8    1
    17    17    16   ar
    18    17    14   ar
    19    18    14   ar
    20    18     9   ar
    21     8     9    1
    22    16    15   ar
    23    14    12   ar
    24     9    10   ar
    25    15    13   ar
    26    12    13   ar
    27    12    11   ar
    28    10    11   ar
@<TRIPOS>MOLECULE
24356822_Intermediate
 29 32 0 0 0
SMALL
GASTEIGER

@<TRIPOS>ATOM
      1  N2        18.5590   27.4500   39.7480 N.ar    0  non0       -0.2664
      2  C7        17.5580   26.6020   40.1380 C.ar    0  non0        0.3384
      3  N3        17.7410   25.8780   41.2970 N.ar    0  non0       -0.2272
      4  C8        18.8490   25.9150   42.1280 C.ar    0  non0        0.2696
      5  C9        19.8810   26.8190   41.6820 C.ar    0  non0        0.0749
      6  C10       21.1420   27.1550   42.2140 C.ar    0  non0       -0.0136
      7  C11       21.9530   26.7740   43.3970 C.3     0  non0        0.0271
      8  C12       23.3560   27.3590   43.0360 C.3     0  non0        0.0099
      9  C13       23.1270   28.4700   41.9610 C.3     0  non0        0.0330
     10  C14       21.7980   28.0810   41.4390 C.ar    0  non0        0.0049
     11  S1        20.9410   28.5680   40.0790 S.2     0  non0       -0.0742
     12  C15       19.6800   27.5300   40.5250 C.ar    0  non0        0.0983
     13  O1        18.9010   25.2320   43.1290 O.2     0  non0       -0.2664
     14  O2        16.5540   26.5120   39.4670 O.2     0  non0       -0.2458
     15  C6        18.4260   28.2230   38.5580 C.3     0  non0        0.1960
     16  C5        17.5100   29.3730   38.8120 C.2     0  non0        0.2489
     17  N1        16.4870   29.6390   37.9420 N.am    0  non0       -0.2780
     18  O3        17.6750   30.0800   39.7960 O.2     0  non0       -0.2728
     19  C2        15.6050   30.7460   38.1870 C.3     0  non0        0.0935
     20  C1        15.9200   31.8650   37.2190 C.3     0  non0        0.0233
     21  C3        16.2930   28.8090   36.7860 C.3     0  non0        0.0935
     22  C4        14.8940   28.2340   36.8050 C.3     0  non0        0.0233
     23  C16       16.6740   25.0510   41.6030 C.ar    0  non0        0.0712
     24  C17       16.6400   23.7320   41.1170 C.ar    0  non0        0.0186
     25  C18       15.5560   22.8980   41.4170 C.ar    0  non0        0.0129
     26  C19       14.5020   23.3710   42.2040 C.ar    0  non0        0.0578
     27  C20       14.5400   24.6820   42.6920 C.ar    0  non0        0.0129
     28 Cl         13.1350   22.3330   42.5820 Cl      0  non0       -0.0822
     29  C21       15.6170   25.5200   42.4010 C.ar    0  non0        0.0186
@<TRIPOS>BOND
     1    21    22    1
     2    21    17    1
     3    20    19    1
     4    17    19    1
     5    17    16   am
     6    15    16    1
     7    15     1    1
     8    16    18    2
     9    14     2    2
    10     1     2   ar
    11     1    12   ar
    12    11    12   ar
    13    11    10   ar
    14     2     3   ar
    15    12     5   ar
    16    24    25   ar
    17    24    23   ar
    18     3    23    1
    19     3     4   ar
    20    25    26   ar
    21    10     9    1
    22    10     6   ar
    23    23    29   ar
    24     5     4   ar
    25     5     6   ar
    26     9     8    1
    27     4    13    2
    28    26    28    1
    29    26    27   ar
    30     6     7    1
    31    29    27   ar
    32     8     7    1
@<TRIPOS>MOLECULE
24356822_Intermediate
 29 32 0 0 0
SMALL
GASTEIGER

@<TRIPOS>ATOM
      1  N2        19.9430   27.9190   33.4570 N.ar    0  non0       -0.2664
      2  C7        21.3100   27.9290   33.5220 C.ar    0  non0        0.3384
      3  N3        22.0130   27.7590   32.3480 N.ar    0  non0       -0.2272
      4  C8        21.4780   27.5760   31.0830 C.ar    0  non0        0.2696
      5  C9        20.0350   27.5700   31.0570 C.ar    0  non0        0.0749
      6  C10       19.1060   27.4170   30.0080 C.ar    0  non0       -0.0136
      7  C11       19.1590   27.2060   28.5400 C.3     0  non0        0.0271
      8  C12       17.6840   26.8060   28.2120 C.3     0  non0        0.0099
      9  C13       16.7960   27.3300   29.3870 C.3     0  non0        0.0330
     10  C14       17.8090   27.4810   30.4550 C.ar    0  non0        0.0049
     11  S1        17.6650   27.7230   32.1100 S.2     0  non0       -0.0742
     12  C15       19.3530   27.7400   32.2360 C.ar    0  non0        0.0983
     13  O1        22.1960   27.4360   30.1160 O.2     0  non0       -0.2664
     14  O2        21.8570   28.0850   34.5910 O.2     0  non0       -0.2458
     15  C6        19.1630   28.0910   34.6370 C.3     0  non0        0.1960
     16  C5        19.1630   29.5300   35.0300 C.2     0  non0        0.2489
     17  N1        19.4350   29.8860   36.3230 N.am    0  non0       -0.2780
     18  O3        18.9190   30.3900   34.1970 O.2     0  non0       -0.2728
     19  C2        19.4350   31.2720   36.7010 C.3     0  non0        0.0935
     20  C1        18.1930   31.5750   37.5100 C.3     0  non0        0.0233
     21  C3        19.7220   28.8750   37.3030 C.3     0  non0        0.0935
     22  C4        21.0770   29.1400   37.9200 C.3     0  non0        0.0233
     23  C16       23.3860   27.7830   32.5220 C.ar    0  non0        0.0712
     24  C17       24.0860   26.5930   32.7860 C.ar    0  non0        0.0186
     25  C18       25.4740   26.6180   32.9720 C.ar    0  non0        0.0129
     26  C19       26.1720   27.8260   32.8940 C.ar    0  non0        0.0578
     27  C20       25.4750   29.0090   32.6260 C.ar    0  non0        0.0129
     28 Cl         27.9130   27.8680   33.1310 Cl      0  non0       -0.0822
     29  C21       24.0920   28.9950   32.4350 C.ar    0  non0        0.0186
@<TRIPOS>BOND
     1     8     7    1
     2     8     9    1
     3     7     6    1
     4     9    10    1
     5     6    10   ar
     6     6     5   ar
     7    13     4    2
     8    10    11   ar
     9     5     4   ar
    10     5    12   ar
    11     4     3   ar
    12    11    12   ar
    13    12     1   ar
    14     3    23    1
    15     3     2   ar
    16    29    23   ar
    17    29    27   ar
    18    23    24   ar
    19    27    26   ar
    20    24    25   ar
    21    26    25   ar
    22    26    28    1
    23     1     2   ar
    24     1    15    1
    25     2    14    2
    26    18    16    2
    27    15    16    1
    28    16    17   am
    29    17    19    1
    30    17    21    1
    31    19    20    1
    32    21    22    1
@<TRIPOS>MOLECULE
24356822_Intermediate
 29 32 0 0 0
SMALL
GASTEIGER

@<TRIPOS>ATOM
      1  N2        17.4920   24.7170   39.8190 N.ar    0  non0       -0.2664
      2  C7        18.7930   24.3210   39.6590 C.ar    0  non0        0.3384
      3  N3        19.7840   25.2430   39.9220 N.ar    0  non0       -0.2272
      4  C8        19.6070   26.5520   40.3400 C.ar    0  non0        0.2696
      5  C9        18.2220   26.9290   40.4960 C.ar    0  non0        0.0749
      6  C10       17.6070   28.1340   40.8930 C.ar    0  non0       -0.0136
      7  C11       18.0500   29.4870   41.3100 C.3     0  non0        0.0271
      8  C12       16.7200   30.3050   41.2400 C.3     0  non0        0.0099
      9  C13       15.5460   29.2760   41.3150 C.3     0  non0        0.0330
     10  C14       16.2370   28.0350   40.9000 C.ar    0  non0        0.0049
     11  S1        15.6560   26.5280   40.4420 S.2     0  non0       -0.0742
     12  C15       17.2500   25.9980   40.2290 C.ar    0  non0        0.0983
     13  O1        20.5570   27.2760   40.5430 O.2     0  non0       -0.2664
     14  O2        19.0340   23.1920   39.2960 O.2     0  non0       -0.2458
     15  C6        16.4250   23.8080   39.5620 C.3     0  non0        0.1960
     16  C5        16.3050   22.8470   40.6970 C.2     0  non0        0.2489
     17  N1        16.2190   21.5030   40.4510 N.am    0  non0       -0.2780
     18  O3        16.2800   23.2610   41.8480 O.2     0  non0       -0.2728
     19  C2        16.1030   20.5790   41.5440 C.3     0  non0        0.0935
     20  C1        14.6880   20.0490   41.6090 C.3     0  non0        0.0233
     21  C3        16.2470   21.0170   39.1000 C.3     0  non0        0.0935
     22  C4        17.3860   20.0350   38.9400 C.3     0  non0        0.0233
     23  C16       21.0610   24.7460   39.7280 C.ar    0  non0        0.0712
     24  C17       21.6800   24.8580   38.4710 C.ar    0  non0        0.0186
     25  C18       22.9680   24.3460   38.2710 C.ar    0  non0        0.0129
     26  C19       23.6480   23.7230   39.3210 C.ar    0  non0        0.0578
     27  C20       23.0340   23.6180   40.5740 C.ar    0  non0        0.0129
     28 Cl         25.2630   23.0740   39.0780 Cl      0  non0       -0.0822
     29  C21       21.7510   24.1280   40.7840 C.ar    0  non0        0.0186
@<TRIPOS>BOND
     1    25    24   ar
     2    25    26   ar
     3    24    23   ar
     4    22    21    1
     5    28    26    1
     6    21    17    1
     7    14     2    2
     8    26    27   ar
     9    15     1    1
    10    15    16    1
    11     2     1   ar
    12     2     3   ar
    13    23     3    1
    14    23    29   ar
    15     1    12   ar
    16     3     4   ar
    17    12    11   ar
    18    12     5   ar
    19     4     5   ar
    20     4    13    2
    21    11    10   ar
    22    17    16   am
    23    17    19    1
    24     5     6   ar
    25    27    29   ar
    26    16    18    2
    27     6    10   ar
    28     6     7    1
    29    10     9    1
    30     8     7    1
    31     8     9    1
    32    19    20    1
@<TRIPOS>MOLECULE
49681067_Accepted
 27 29 0 0 0
SMALL
GASTEIGER

@<TRIPOS>ATOM
      1  C1        19.3000   26.3720   27.8740 C.3     0  non0        0.0231
      2  C2        17.9680   26.9970   28.2580 C.3     0  non0        0.0960
      3  C3        16.8370   26.1160   27.8440 C.3     0  non0        0.1175
      4  N1        16.1720   25.7410   28.9980 N.3     0  non0       -0.1337
      5  C4        16.8340   26.3320   30.0890 C.3     0  non0        0.1929
      6  N2        17.8610   27.0980   29.6080 N.am    0  non0       -0.2485
      7  C5        18.7080   27.8840   30.3240 C.2     0  non0        0.3083
      8  N3        19.6910   28.5910   29.6860 N.am    0  non0       -0.2589
      9  C6        20.6220   29.4470   30.4240 C.3     0  non0        0.1270
     10  C7        22.0460   29.0450   30.0250 C.3     0  non0        0.1637
     11  O1        22.2100   29.0940   28.6030 O.3     0  non0       -0.3501
     12  C8        21.3270   28.1750   27.9470 C.3     0  non0        0.1637
     13  C9        19.8620   28.5270   28.2320 C.3     0  non0        0.1270
     14  O2        18.5920   27.9580   31.5380 O.2     0  non0       -0.2523
     15  S1        14.6060   26.2660   28.9400 S.O2    0  non0        0.0648
     16  O3        13.6530   25.2700   29.8660 O.2     0  non0       -0.1527
     17  O4        14.0730   26.2390   27.3670 O.2     0  non0       -0.1527
     18  C10       14.5150   27.9200   29.5650 C.ar    0  non0        0.1222
     19  C11       14.1230   28.1550   30.8940 C.ar    0  non0        0.0199
     20  C12       14.0410   29.4630   31.3830 C.ar    0  non0        0.0013
     21  C13       14.3530   30.5440   30.5560 C.ar    0  non0        0.0039
     22  C14       14.7500   30.3100   29.2360 C.ar    0  non0        0.0727
     23  C15       14.8380   29.0080   28.7380 C.ar    0  non0        0.0238
     24  C16       15.0780   31.4560   28.3660 C.3     0  non0        0.4186
     25  F1        13.9250   32.1560   28.0720 F       0  non0       -0.1659
     26  F2        15.6490   30.9960   27.1960 F       0  non0       -0.1659
     27  F3        15.9680   32.2880   29.0160 F       0  non0       -0.1659
@<TRIPOS>BOND
     1    26    24    1
     2    17    15    2
     3     3     2    1
     4     3     4    1
     5     1     2    1
     6    12    13    1
     7    12    11    1
     8    25    24    1
     9    13     8    1
    10     2     6    1
    11    24    27    1
    12    24    22    1
    13    11    10    1
    14    23    22   ar
    15    23    18   ar
    16    15     4    1
    17    15    18    1
    18    15    16    2
    19     4     5    1
    20    22    21   ar
    21    18    19   ar
    22     6     5    1
    23     6     7   am
    24     8     7   am
    25     8     9    1
    26    10     9    1
    27     7    14    2
    28    21    20   ar
    29    19    20   ar
@<TRIPOS>MOLECULE
49681067_Accepted
 27 29 0 0 0
SMALL
GASTEIGER

@<TRIPOS>ATOM
      1  C1        17.2390   21.5070   34.1990 C.3     0  non0        0.0231
      2  C2        18.5810   22.0980   34.6020 C.3     0  non0        0.0960
      3  C3        19.2240   22.7770   33.4400 C.3     0  non0        0.1175
      4  N1        19.3510   24.1150   33.7730 N.3     0  non0       -0.1337
      5  C4        18.8170   24.2910   35.0610 C.3     0  non0        0.1929
      6  N2        18.4120   23.0720   35.5330 N.am    0  non0       -0.2485
      7  C5        17.8970   22.7920   36.7590 C.2     0  non0        0.3083
      8  N3        17.5380   21.5090   37.0750 N.am    0  non0       -0.2589
      9  C6        16.9800   21.1710   38.3860 C.3     0  non0        0.1270
     10  C7        15.6680   20.4130   38.1540 C.3     0  non0        0.1637
     11  O1        15.8760   19.2840   37.2980 O.3     0  non0       -0.3501
     12  C8        16.3450   19.6910   36.0070 C.3     0  non0        0.1637
     13  C9        17.6940   20.4110   36.1170 C.3     0  non0        0.1270
     14  O2        17.7550   23.6870   37.5800 O.2     0  non0       -0.2523
     15  S1        20.9470   24.5470   33.7620 S.O2    0  non0        0.0648
     16  O3        21.0780   26.1740   33.4530 O.2     0  non0       -0.1527
     17  O4        21.7420   23.6930   32.5810 O.2     0  non0       -0.1527
     18  C10       21.6660   24.1850   35.3380 C.ar    0  non0        0.1222
     19  C11       21.8050   25.1970   36.3030 C.ar    0  non0        0.0199
     20  C12       22.3850   24.9120   37.5450 C.ar    0  non0        0.0013
     21  C13       22.8230   23.6180   37.8350 C.ar    0  non0        0.0039
     22  C14       22.6790   22.6090   36.8780 C.ar    0  non0        0.0727
     23  C15       22.1000   22.8830   35.6360 C.ar    0  non0        0.0238
     24  C16       23.1440   21.2450   37.1900 C.3     0  non0        0.4186
     25  F1        22.6660   20.3660   36.2390 F       0  non0       -0.1659
     26  F2        22.6780   20.8740   38.4350 F       0  non0       -0.1659
     27  F3        24.5250   21.2180   37.1890 F       0  non0       -0.1659
@<TRIPOS>BOND
     1    17    15    2
     2     3     4    1
     3     3     2    1
     4    16    15    2
     5    15     4    1
     6    15    18    1
     7     4     5    1
     8     1     2    1
     9     2     6    1
    10     5     6    1
    11    18    23   ar
    12    18    19   ar
    13     6     7   am
    14    23    22   ar
    15    12    13    1
    16    12    11    1
    17    13     8    1
    18    25    24    1
    19    19    20   ar
    20     7     8   am
    21     7    14    2
    22    22    24    1
    23    22    21   ar
    24     8     9    1
    25    27    24    1
    26    24    26    1
    27    11    10    1
    28    20    21   ar
    29    10     9    1
@<TRIPOS>MOLECULE
49681067_Accepted
 27 29 0 0 0
SMALL
GASTEIGER

@<TRIPOS>ATOM
      1  C1        15.8440   28.7320   33.1390 C.3     0  non0        0.0231
      2  C2        15.6570   27.2310   32.9800 C.3     0  non0        0.0960
      3  C3        16.6200   26.4890   33.8450 C.3     0  non0        0.1175
      4  N1        15.8690   25.7560   34.7490 N.3     0  non0       -0.1337
      5  C4        14.5110   26.0150   34.4920 C.3     0  non0        0.1929
      6  N2        14.4270   26.8550   33.4140 N.am    0  non0       -0.2485
      7  C5        13.2980   27.3010   32.8040 C.2     0  non0        0.3083
      8  N3        13.3870   28.1450   31.7300 N.am    0  non0       -0.2589
      9  C6        12.1920   28.6470   31.0480 C.3     0  non0        0.1270
     10  C7        12.2970   30.1750   30.9820 C.3     0  non0        0.1637
     11  O1        13.5300   30.5760   30.3730 O.3     0  non0       -0.3501
     12  C8        14.6560   30.1220   31.1340 C.3     0  non0        0.1637
     13  C9        14.6830   28.5910   31.2100 C.3     0  non0        0.1270
     14  O2        12.2020   26.9490   33.2150 O.2     0  non0       -0.2523
     15  S1        16.1810   24.1440   34.5600 S.O2    0  non0        0.0648
     16  O3        15.8880   23.3520   35.9900 O.2     0  non0       -0.1527
     17  O4        17.7700   23.9360   34.1260 O.2     0  non0       -0.1527
     18  C10       15.1320   23.4860   33.2950 C.ar    0  non0        0.1222
     19  C11       13.9480   22.8110   33.6360 C.ar    0  non0        0.0199
     20  C12       13.1260   22.2810   32.6350 C.ar    0  non0        0.0013
     21  C13       13.4740   22.4240   31.2900 C.ar    0  non0        0.0039
     22  C14       14.6490   23.1020   30.9500 C.ar    0  non0        0.0727
     23  C15       15.4760   23.6360   31.9410 C.ar    0  non0        0.0238
     24  C16       15.0120   23.2500   29.5280 C.3     0  non0        0.4186
     25  F1        16.0020   24.2040   29.4020 F       0  non0       -0.1659
     26  F2        13.9010   23.6400   28.8080 F       0  non0       -0.1659
     27  F3        15.4740   22.0420   29.0420 F       0  non0       -0.1659
@<TRIPOS>BOND
     1    26    24    1
     2    27    24    1
     3    25    24    1
     4    24    22    1
     5    11    10    1
     6    11    12    1
     7    22    21   ar
     8    22    23   ar
     9    10     9    1
    10     9     8    1
    11    12    13    1
    12    13     8    1
    13    21    20   ar
    14     8     7   am
    15    23    18   ar
    16    20    19   ar
    17     7    14    2
    18     7     6   am
    19     2     1    1
    20     2     6    1
    21     2     3    1
    22    18    19   ar
    23    18    15    1
    24     6     5    1
    25     3     4    1
    26    17    15    2
    27     5     4    1
    28    15     4    1
    29    15    16    2
@<TRIPOS>MOLECULE
24328527_Intermediate
 29 31 0 0 0
SMALL
GASTEIGER

@<TRIPOS>ATOM
      1  C8        15.0300   22.4300   36.6750 C.ar    0  non0        0.0995
      2  C9        14.9470   21.3630   35.7860 C.ar    0  non0        0.0101
      3  C10       15.7920   20.2630   35.9810 C.ar    0  non0        0.0209
      4  C11       16.7060   20.2740   37.0330 C.ar    0  non0        0.0994
      5  N2        16.7980   21.3090   37.8830 N.ar    0  non0       -0.2374
      6  C12       15.9680   22.3580   37.6960 C.ar    0  non0        0.1132
      7  C7        14.1580   23.5910   36.5380 C.2     0  non0        0.3477
      8  O3        13.3870   23.8840   37.4400 O.2     0  non0       -0.2444
      9  O2        14.2040   24.3440   35.4140 O.3     0  non0       -0.4209
     10  C5        15.1470   25.3210   35.5560 C.ar    0  non0        0.1503
     11  C4        14.8130   26.5060   36.2210 C.ar    0  non0        0.0377
     12  C3        15.7740   27.5080   36.3680 C.ar    0  non0        0.0047
     13  C2        17.0640   27.3280   35.8550 C.ar    0  non0        0.0196
     14  C1        17.3860   26.1370   35.2000 C.ar    0  non0        0.0893
     15  C6        16.4300   25.1320   35.0400 C.ar    0  non0        0.0570
     16  N1        18.7190   25.9520   34.6860 N.4     0  non0       -0.2110
     17  O4        18.6580   25.7230   33.2550 O.3     0  non0       -0.0829
     18  H2        19.1410   25.1560   35.1410 H       0  non0        0.2034
     19  O1        19.5080   27.1380   34.9510 O.3     0  non0       -0.2823
     20  H1        19.3000   27.8130   34.3010 H       0  non0        0.2447
     21  S1        16.0560   23.7270   38.7910 S.3     0  non0       -0.0900
     22  C13       17.8520   23.9670   38.6030 C.3     0  non0        0.0895
     23  C14       18.1860   25.3990   38.8130 C.ar    0  non0       -0.0149
     24  C15       17.2750   26.2530   39.4560 C.ar    0  non0       -0.0037
     25  C16       17.5850   27.6060   39.6420 C.ar    0  non0       -0.0003
     26  C17       18.8050   28.1150   39.1930 C.ar    0  non0       -0.0003
     27  C18       19.7150   27.2620   38.5590 C.ar    0  non0       -0.0045
     28  C19       19.4160   25.9130   38.3690 C.ar    0  non0       -0.0250
     29  C20       20.3790   25.0120   37.7040 C.3     0  non0        0.0307
@<TRIPOS>BOND
     1    17    16    1
     2    20    19    1
     3    16    19    1
     4    16    18    1
     5    16    14    1
     6    15    14   ar
     7    15    10   ar
     8    14    13   ar
     9     9    10    1
    10     9     7    1
    11    10    11   ar
    12     2     3   ar
    13     2     1   ar
    14    13    12   ar
    15     3     4   ar
    16    11    12   ar
    17     7     1    1
    18     7     8    2
    19     1     6   ar
    20     4     5   ar
    21     6     5   ar
    22     6    21    1
    23    29    28    1
    24    28    27   ar
    25    28    23   ar
    26    27    26   ar
    27    22    21    1
    28    22    23    1
    29    23    24   ar
    30    26    25   ar
    31    24    25   ar
@<TRIPOS>MOLECULE
24328527_Intermediate
 29 31 0 0 0
SMALL
GASTEIGER

@<TRIPOS>ATOM
      1  C8        23.3660   23.0090   33.7970 C.ar    0  non0        0.0995
      2  C9        24.4230   23.1610   34.6890 C.ar    0  non0        0.0101
      3  C10       24.3840   24.2260   35.5980 C.ar    0  non0        0.0209
      4  C11       23.3110   25.1150   35.5730 C.ar    0  non0        0.0994
      5  N2        22.2970   24.9790   34.7030 N.ar    0  non0       -0.2374
      6  C12       22.3370   23.9410   33.8410 C.ar    0  non0        0.1132
      7  C7        23.3390   21.9060   32.8450 C.2     0  non0        0.3477
      8  O3        22.4310   21.0890   32.8840 O.2     0  non0       -0.2444
      9  O2        24.3190   21.7860   31.9180 O.3     0  non0       -0.4209
     10  C5        23.9810   22.4950   30.8020 C.ar    0  non0        0.1503
     11  C4        23.1420   21.9090   29.8470 C.ar    0  non0        0.0377
     12  C3        22.7940   22.6300   28.7020 C.ar    0  non0        0.0047
     13  C2        23.2790   23.9290   28.5120 C.ar    0  non0        0.0196
     14  C1        24.1100   24.5030   29.4770 C.ar    0  non0        0.0893
     15  C6        24.4710   23.7890   30.6210 C.ar    0  non0        0.0570
     16  N1        24.5960   25.8450   29.2820 N.4     0  non0       -0.2110
     17  O4        26.0470   25.8370   29.2710 O.3     0  non0       -0.0829
     18  H2        24.2640   26.4290   30.0360 H       0  non0        0.2034
     19  O1        24.1070   26.3570   28.0180 O.3     0  non0       -0.2823
     20  H1        23.7900   25.6290   27.4780 H       0  non0        0.2447
     21  S1        21.0260   23.7270   32.6930 S.3     0  non0       -0.0900
     22  C13       21.1020   25.4280   32.0460 C.3     0  non0        0.0895
     23  C14       20.6440   25.4410   30.6320 C.ar    0  non0       -0.0149
     24  C15       19.9030   24.3650   30.1160 C.ar    0  non0       -0.0037
     25  C16       19.4830   24.3730   28.7810 C.ar    0  non0       -0.0003
     26  C17       19.7940   25.4540   27.9530 C.ar    0  non0       -0.0003
     27  C18       20.5250   26.5290   28.4690 C.ar    0  non0       -0.0045
     28  C19       20.9480   26.5310   29.7990 C.ar    0  non0       -0.0250
     29  C20       21.7160   27.6680   30.3450 C.3     0  non0        0.0307
@<TRIPOS>BOND
     1    20    19    1
     2    26    27   ar
     3    26    25   ar
     4    19    16    1
     5    27    28   ar
     6    13    12   ar
     7    13    14   ar
     8    12    11   ar
     9    25    24   ar
    10    17    16    1
    11    16    14    1
    12    16    18    1
    13    14    15   ar
    14    28    29    1
    15    28    23   ar
    16    11    10   ar
    17    24    23   ar
    18    15    10   ar
    19    23    22    1
    20    10     9    1
    21     9     7    1
    22    22    21    1
    23    21     6    1
    24     7     8    2
    25     7     1    1
    26     1     6   ar
    27     1     2   ar
    28     6     5   ar
    29     2     3   ar
    30     5     4   ar
    31     4     3   ar
@<TRIPOS>MOLECULE
24328527_Intermediate
 29 31 0 0 0
SMALL
GASTEIGER

@<TRIPOS>ATOM
      1  C8        24.4330   24.9970   38.7520 C.ar    0  non0        0.0995
      2  C9        25.4510   24.6940   37.8540 C.ar    0  non0        0.0101
      3  C10       26.7500   25.1320   38.1420 C.ar    0  non0        0.0209
      4  C11       26.9860   25.8770   39.2970 C.ar    0  non0        0.0994
      5  N2        26.0020   26.1820   40.1570 N.ar    0  non0       -0.2374
      6  C12       24.7560   25.7420   39.8780 C.ar    0  non0        0.1132
      7  C7        23.0660   24.5460   38.5190 C.2     0  non0        0.3477
      8  O3        22.5230   23.8030   39.3230 O.2     0  non0       -0.2444
      9  O2        22.3990   24.9490   37.4110 O.3     0  non0       -0.4209
     10  C5        21.7520   26.1230   37.6710 C.ar    0  non0        0.1503
     11  C4        20.5020   26.0930   38.2970 C.ar    0  non0        0.0377
     12  C3        19.8350   27.2920   38.5630 C.ar    0  non0        0.0047
     13  C2        20.4160   28.5140   38.2070 C.ar    0  non0        0.0196
     14  C1        21.6680   28.5290   37.5880 C.ar    0  non0        0.0893
     15  C6        22.3390   27.3370   37.3100 C.ar    0  non0        0.0570
     16  N1        22.2660   29.7920   37.2360 N.4     0  non0       -0.2110
     17  O4        22.5080   29.8300   35.8060 O.3     0  non0       -0.0829
     18  H2        23.1390   29.8940   37.7320 H       0  non0        0.2034
     19  O1        21.3700   30.8700   37.6020 O.3     0  non0       -0.2823
     20  H1        21.1470   31.3810   36.8200 H       0  non0        0.2447
     21  S1        23.4460   26.1170   40.9840 S.3     0  non0       -0.0900
     22  C13       23.7670   27.9100   41.0100 C.3     0  non0        0.0895
     23  C14       22.4980   28.6380   41.2680 C.ar    0  non0       -0.0149
     24  C15       21.3890   27.9620   41.8020 C.ar    0  non0       -0.0037
     25  C16       20.1890   28.6460   42.0330 C.ar    0  non0       -0.0003
     26  C17       20.0890   30.0070   41.7380 C.ar    0  non0       -0.0003
     27  C18       21.1960   30.6810   41.2130 C.ar    0  non0       -0.0045
     28  C19       22.3960   30.0090   40.9790 C.ar    0  non0       -0.0250
     29  C20       23.5660   30.7220   40.4300 C.3     0  non0        0.0307
@<TRIPOS>BOND
     1    17    16    1
     2    20    19    1
     3    16    14    1
     4    16    19    1
     5    16    18    1
     6    15    14   ar
     7    15    10   ar
     8     9    10    1
     9     9     7    1
    10    14    13   ar
    11    10    11   ar
    12     2     3   ar
    13     2     1   ar
    14     3     4   ar
    15    13    12   ar
    16    11    12   ar
    17     7     1    1
    18     7     8    2
    19     1     6   ar
    20     4     5   ar
    21     6     5   ar
    22     6    21    1
    23    29    28    1
    24    28    27   ar
    25    28    23   ar
    26    21    22    1
    27    22    23    1
    28    27    26   ar
    29    23    24   ar
    30    26    25   ar
    31    24    25   ar
@<TRIPOS>MOLECULE
92764569_Accepted
 23 25 0 0 0
SMALL
GASTEIGER

@<TRIPOS>ATOM
      1  C1        13.7750   21.9650   31.3850 C.3     0  non0        0.1366
      2  N1        13.3130   21.7960   32.7230 N.ar    0  non0       -0.2642
      3  C2        13.3050   22.8740   33.5750 C.ar    0  non0        0.1485
      4  C3        12.8710   22.7760   34.8660 C.ar    0  non0        0.1708
      5  C4        12.3970   21.5550   35.4230 C.ar    0  non0        0.2849
      6  N2        12.4600   20.4820   34.5300 N.ar    0  non0       -0.2454
      7  C5        12.0670   19.2280   35.0840 C.3     0  non0        0.1383
      8  C6        12.8680   20.5580   33.1830 C.ar    0  non0        0.3350
      9  O1        12.8240   19.5770   32.4740 O.2     0  non0       -0.2461
     10  O2        11.9870   21.4950   36.5620 O.2     0  non0       -0.2651
     11  N3        13.0060   24.0390   35.3770 N.ar    0  non0       -0.2239
     12  C7        13.5240   24.8210   34.3720 C.ar    0  non0        0.1293
     13  N4        13.7090   24.1340   33.2640 N.ar    0  non0       -0.3266
     14  H16       14.0720   24.4870   32.3900 H       0  non0        0.1685
     15  C8        13.8700   26.2340   34.3940 C.3     0  non0        0.1213
     16  S1        15.6080   26.4420   33.8850 S.3     0  non0       -0.1274
     17  C9        16.3040   25.6440   35.3680 C.3     0  non0        0.0842
     18  C10       17.1670   24.5050   34.9580 C.ar    0  non0       -0.0113
     19  C11       18.4040   24.7420   34.3330 C.ar    0  non0       -0.0034
     20  C12       19.2110   23.6690   33.9380 C.ar    0  non0       -0.0003
     21  C13       18.7960   22.3550   34.1670 C.ar    0  non0       -0.0000
     22  C14       17.5680   22.1190   34.7960 C.ar    0  non0       -0.0003
     23  C15       16.7570   23.1830   35.1950 C.ar    0  non0       -0.0034
@<TRIPOS>BOND
     1     1     2    1
     2    14    13    1
     3     9     8    2
     4     2     8   ar
     5     2     3   ar
     6     8     6   ar
     7    13     3   ar
     8    13    12   ar
     9     3     4   ar
    10    16    15    1
    11    16    17    1
    12    20    21   ar
    13    20    19   ar
    14    21    22   ar
    15    19    18   ar
    16    12    15    1
    17    12    11   ar
    18     6     7    1
    19     6     5   ar
    20    22    23   ar
    21     4    11   ar
    22     4     5   ar
    23    18    23   ar
    24    18    17    1
    25     5    10    2
@<TRIPOS>MOLECULE
92764569_Accepted
 23 25 0 0 0
SMALL
GASTEIGER

@<TRIPOS>ATOM
      1  C1        16.9150   28.1870   35.8050 C.3     0  non0        0.1366
      2  N1        16.0810   29.1230   36.4820 N.ar    0  non0       -0.2642
      3  C2        16.2090   29.2800   37.8420 C.ar    0  non0        0.1485
      4  C3        15.4430   30.1630   38.5460 C.ar    0  non0        0.1708
      5  C4        14.4560   30.9830   37.9270 C.ar    0  non0        0.2849
      6  N2        14.3390   30.7590   36.5530 N.ar    0  non0       -0.2454
      7  C5        13.3040   31.5070   35.9190 C.3     0  non0        0.1383
      8  C6        15.1390   29.8830   35.7930 C.ar    0  non0        0.3350
      9  O1        14.9960   29.8110   34.5920 O.2     0  non0       -0.2461
     10  O2        13.8060   31.7830   38.5650 O.2     0  non0       -0.2651
     11  N3        15.8660   30.0380   39.8420 N.ar    0  non0       -0.2239
     12  C7        16.8520   29.0800   39.8470 C.ar    0  non0        0.1293
     13  N4        17.0820   28.6090   38.6390 N.ar    0  non0       -0.3266
     14  H16       17.7610   27.9050   38.3860 H       0  non0        0.1685
     15  C8        17.6220   28.5600   40.9670 C.3     0  non0        0.1213
     16  S1        17.4560   26.7460   41.0280 S.3     0  non0       -0.1274
     17  C9        15.6930   26.7630   41.4860 C.3     0  non0        0.0842
     18  C10       14.9140   25.9890   40.4840 C.ar    0  non0       -0.0113
     19  C11       15.0290   24.5900   40.4230 C.ar    0  non0       -0.0034
     20  C12       14.3040   23.8620   39.4720 C.ar    0  non0       -0.0003
     21  C13       13.4550   24.5220   38.5800 C.ar    0  non0       -0.0000
     22  C14       13.3350   25.9150   38.6450 C.ar    0  non0       -0.0003
     23  C15       14.0540   26.6490   39.5910 C.ar    0  non0       -0.0034
@<TRIPOS>BOND
     1     9     8    2
     2     8     2   ar
     3     8     6   ar
     4     1     2    1
     5     7     6    1
     6     2     3   ar
     7     6     5   ar
     8     3     4   ar
     9     3    13   ar
    10     5     4   ar
    11     5    10    2
    12    14    13    1
    13     4    11   ar
    14    21    22   ar
    15    21    20   ar
    16    13    12   ar
    17    22    23   ar
    18    20    19   ar
    19    23    18   ar
    20    11    12   ar
    21    12    15    1
    22    19    18   ar
    23    18    17    1
    24    15    16    1
    25    16    17    1
@<TRIPOS>MOLECULE
92764569_Accepted
 23 25 0 0 0
SMALL
GASTEIGER

@<TRIPOS>ATOM
      1  C1        21.3260   27.3150   35.6900 C.3     0  non0        0.1366
      2  N1        20.6950   28.1350   34.7100 N.ar    0  non0       -0.2642
      3  C2        20.5190   27.6490   33.4360 C.ar    0  non0        0.1485
      4  C3        19.9180   28.3840   32.4560 C.ar    0  non0        0.1708
      5  C4        19.4320   29.7040   32.6770 C.ar    0  non0        0.2849
      6  N2        19.6680   30.1660   33.9750 N.ar    0  non0       -0.2454
      7  C5        19.2640   31.5130   34.2050 C.3     0  non0        0.1383
      8  C6        20.2510   29.4190   35.0180 C.ar    0  non0        0.3350
      9  O1        20.3520   29.8950   36.1280 O.2     0  non0       -0.2461
     10  O2        18.8740   30.3290   31.8020 O.2     0  non0       -0.2651
     11  N3        19.9210   27.5690   31.3550 N.ar    0  non0       -0.2239
     12  C7        20.5330   26.3960   31.7310 C.ar    0  non0        0.1293
     13  N4        20.9000   26.4210   32.9960 N.ar    0  non0       -0.3266
     14  H16       21.3610   25.6790   33.5040 H       0  non0        0.1685
     15  C8        20.8040   25.2070   30.9400 C.3     0  non0        0.1213
     16  S1        22.5830   24.8180   31.0170 S.3     0  non0       -0.1274
     17  C9        23.1080   26.2840   30.0720 C.3     0  non0        0.0842
     18  C10       24.0730   27.0750   30.8810 C.ar    0  non0       -0.0113
     19  C11       25.3700   26.5870   31.1140 C.ar    0  non0       -0.0034
     20  C12       26.2750   27.3270   31.8840 C.ar    0  non0       -0.0003
     21  C13       25.8960   28.5590   32.4220 C.ar    0  non0       -0.0000
     22  C14       24.6070   29.0490   32.1850 C.ar    0  non0       -0.0003
     23  C15       23.6980   28.3180   31.4160 C.ar    0  non0       -0.0034
@<TRIPOS>BOND
     1    17    18    1
     2    17    16    1
     3    18    19   ar
     4    18    23   ar
     5    15    16    1
     6    15    12    1
     7    19    20   ar
     8    11    12   ar
     9    11     4   ar
    10    23    22   ar
    11    12    13   ar
    12    10     5    2
    13    20    21   ar
    14    22    21   ar
    15     4     5   ar
    16     4     3   ar
    17     5     6   ar
    18    13     3   ar
    19    13    14    1
    20     3     2   ar
    21     6     7    1
    22     6     8   ar
    23     2     8   ar
    24     2     1    1
    25     8     9    2
@<TRIPOS>MOLECULE
17506657_Intermediate
 26 28 0 0 0
SMALL
GASTEIGER

@<TRIPOS>ATOM
      1  C1        20.2170   27.5680   34.5350 C.3     0  non0        0.0018
      2  C2        21.3440   28.1630   33.6800 C.3     0  non0        0.0015
      3  C3        20.9230   29.4860   33.0460 C.3     0  non0        0.0191
      4  C4        19.6280   29.3440   32.2400 C.3     0  non0        0.0935
      5  C5        18.5050   28.7550   33.1000 C.3     0  non0        0.0888
      6  C6        18.9140   27.4280   33.7360 C.3     0  non0        0.0211
      7  N2        19.2220   30.6520   31.7620 N.3     0  non0       -0.1791
      8  H19       18.9800   31.3780   32.4210 H       0  non0        0.1488
      9  S1        19.2490   30.6670   30.1100 S.O2    0  non0        0.0602
     10  O1        20.2550   31.8800   29.5830 O.2     0  non0       -0.1530
     11  O2        19.8070   29.2060   29.5530 O.2     0  non0       -0.1530
     12  C14       17.6230   30.9460   29.5000 C.ar    0  non0        0.1220
     13  C15       16.9100   32.0640   29.9380 C.ar    0  non0        0.0208
     14  C16       15.6120   32.2860   29.4660 C.ar    0  non0        0.0128
     15  C17       15.0320   31.3960   28.5560 C.ar    0  non0        0.0578
     16  C18       15.7610   30.2850   28.1210 C.ar    0  non0        0.0128
     17 Cl         13.4020   31.6670   27.9610 Cl      0  non0       -0.0822
     18  C19       17.0560   30.0550   28.5860 C.ar    0  non0        0.0208
     19  N1        17.3320   28.5340   32.2500 N.pl3   0  non0       -0.3061
     20  C7        17.3440   27.4760   31.2570 C.3     0  non0        0.1122
     21  C8        16.1570   29.3730   32.4020 C.ar    0  non0        0.0479
     22  C9        15.0050   29.1260   31.6350 C.ar    0  non0        0.0145
     23  C10       13.8790   29.9430   31.7720 C.ar    0  non0        0.0013
     24  C11       13.8880   31.0090   32.6750 C.ar    0  non0        0.0001
     25  C12       15.0330   31.2510   33.4420 C.ar    0  non0        0.0013
     26  C13       16.1620   30.4400   33.3130 C.ar    0  non0        0.0145
@<TRIPOS>BOND
     1    17    15    1
     2    16    15   ar
     3    16    18   ar
     4    15    14   ar
     5    18    12   ar
     6    14    13   ar
     7    12    13   ar
     8    12     9    1
     9    11     9    2
    10    10     9    2
    11     9     7    1
    12    20    19    1
    13    22    23   ar
    14    22    21   ar
    15     7     4    1
    16     7     8    1
    17    23    24   ar
    18     4     3    1
    19     4     5    1
    20    19    21    1
    21    19     5    1
    22    21    26   ar
    23    24    25   ar
    24     3     2    1
    25     5     6    1
    26    26    25   ar
    27     2     1    1
    28     6     1    1
@<TRIPOS>MOLECULE
17506657_Intermediate
 26 28 0 0 0
SMALL
GASTEIGER

@<TRIPOS>ATOM
      1  C1        11.9040   30.2290   33.6730 C.3     0  non0        0.0018
      2  C2        12.8550   29.8990   34.8320 C.3     0  non0        0.0015
      3  C3        14.2830   30.3420   34.5230 C.3     0  non0        0.0191
      4  C4        14.7880   29.7550   33.2020 C.3     0  non0        0.0935
      5  C5        13.8380   30.0920   32.0490 C.3     0  non0        0.0888
      6  C6        12.4080   29.6480   32.3450 C.3     0  non0        0.0211
      7  N2        16.0990   30.3030   32.9110 N.3     0  non0       -0.1791
      8  H19       16.2090   31.2950   32.7540 H       0  non0        0.1488
      9  S1        17.2160   29.0860   32.9000 S.O2    0  non0        0.0602
     10  O1        18.4120   29.4190   34.0040 O.2     0  non0       -0.1530
     11  O2        16.4770   27.6540   33.3020 O.2     0  non0       -0.1530
     12  C14       17.9210   28.9510   31.2930 C.ar    0  non0        0.1220
     13  C15       18.4950   30.0780   30.7010 C.ar    0  non0        0.0208
     14  C16       19.0460   29.9820   29.4190 C.ar    0  non0        0.0128
     15  C17       19.0280   28.7620   28.7350 C.ar    0  non0        0.0578
     16  C18       18.4570   27.6400   29.3440 C.ar    0  non0        0.0128
     17 Cl         19.7170   28.6330   27.1250 Cl      0  non0       -0.0822
     18  C19       17.9040   27.7260   30.6220 C.ar    0  non0        0.0208
     19  N1        14.3080   29.4090   30.8400 N.pl3   0  non0       -0.3061
     20  C7        14.1900   27.9680   30.7290 C.3     0  non0        0.1122
     21  C8        14.8910   30.1750   29.7540 C.ar    0  non0        0.0479
     22  C9        15.2850   29.5360   28.5660 C.ar    0  non0        0.0145
     23  C10       15.8580   30.2720   27.5260 C.ar    0  non0        0.0013
     24  C11       16.0440   31.6510   27.6570 C.ar    0  non0        0.0001
     25  C12       15.6480   32.2880   28.8390 C.ar    0  non0        0.0013
     26  C13       15.0720   31.5620   29.8820 C.ar    0  non0        0.0145
@<TRIPOS>BOND
     1    17    15    1
     2    23    24   ar
     3    23    22   ar
     4    24    25   ar
     5    22    21   ar
     6    15    16   ar
     7    15    14   ar
     8    25    26   ar
     9    16    18   ar
    10    14    13   ar
    11    21    26   ar
    12    21    19    1
    13    18    12   ar
    14    13    12   ar
    15    20    19    1
    16    19     5    1
    17    12     9    1
    18     5     6    1
    19     5     4    1
    20     6     1    1
    21     8     7    1
    22     9     7    1
    23     9    11    2
    24     9    10    2
    25     7     4    1
    26     4     3    1
    27     1     2    1
    28     3     2    1
@<TRIPOS>MOLECULE
17506657_Intermediate
 26 28 0 0 0
SMALL
GASTEIGER

@<TRIPOS>ATOM
      1  C1        19.4580   30.1240   42.6140 C.3     0  non0        0.0018
      2  C2        20.3370   30.4670   41.4030 C.3     0  non0        0.0015
      3  C3        19.6460   30.0990   40.0920 C.3     0  non0        0.0191
      4  C4        19.2150   28.6290   40.0700 C.3     0  non0        0.0935
      5  C5        18.3340   28.2950   41.2780 C.3     0  non0        0.0888
      6  C6        19.0170   28.6550   42.5950 C.3     0  non0        0.0211
      7  N2        18.4670   28.3740   38.8530 N.3     0  non0       -0.1791
      8  H19       17.5930   28.8510   38.6880 H       0  non0        0.1488
      9  S1        19.2780   27.2700   37.9300 S.O2    0  non0        0.0602
     10  O1        19.5840   27.9170   36.4310 O.2     0  non0       -0.1530
     11  O2        20.7140   26.8800   38.6680 O.2     0  non0       -0.1530
     12  C14       18.2970   25.8190   37.7540 C.ar    0  non0        0.1220
     13  C15       16.9950   25.9290   37.2620 C.ar    0  non0        0.0208
     14  C16       16.2050   24.7830   37.1310 C.ar    0  non0        0.0128
     15  C17       16.7180   23.5310   37.4860 C.ar    0  non0        0.0578
     16  C18       18.0260   23.4350   37.9710 C.ar    0  non0        0.0128
     17 Cl         15.7320   22.0860   37.3260 Cl      0  non0       -0.0822
     18  C19       18.8220   24.5730   38.1050 C.ar    0  non0        0.0208
     19  N1        18.0510   26.8570   41.2660 N.pl3   0  non0       -0.3061
     20  C7        19.1040   25.9070   41.5690 C.3     0  non0        0.1122
     21  C8        16.7150   26.3830   40.9510 C.ar    0  non0        0.0479
     22  C9        16.4190   25.0090   41.0020 C.ar    0  non0        0.0145
     23  C10       15.1370   24.5530   40.6870 C.ar    0  non0        0.0013
     24  C11       14.1370   25.4570   40.3210 C.ar    0  non0        0.0001
     25  C12       14.4310   26.8250   40.2740 C.ar    0  non0        0.0013
     26  C13       15.7080   27.2910   40.5900 C.ar    0  non0        0.0145
@<TRIPOS>BOND
     1    10     9    2
     2    14    13   ar
     3    14    15   ar
     4    13    12   ar
     5    17    15    1
     6    15    16   ar
     7    12     9    1
     8    12    18   ar
     9     9    11    2
    10     9     7    1
    11    16    18   ar
    12     8     7    1
    13     7     4    1
    14     4     3    1
    15     4     5    1
    16     3     2    1
    17    25    24   ar
    18    25    26   ar
    19    24    23   ar
    20    26    21   ar
    21    23    22   ar
    22    21    22   ar
    23    21    19    1
    24    19     5    1
    25    19    20    1
    26     5     6    1
    27     2     1    1
    28     6     1    1
@<TRIPOS>MOLECULE
24312258_Intermediate
 26 28 0 0 0
SMALL
GASTEIGER

@<TRIPOS>ATOM
      1  C2        15.9560   24.2180   35.2160 C.3     0  non0        0.1978
      2  P1        15.9090   23.8220   37.0430 P.3     0  non0        0.3650
      3  O2        16.5830   22.4940   37.2880 O.2     0  non0       -0.2557
      4  O1        16.6900   24.9880   37.8720 O.3     0  non0       -0.2901
      5  C1        18.0640   24.6520   37.9830 C.3     0  non0        0.1839
      6  O3        14.3600   23.7460   37.5420 O.3     0  non0       -0.2901
      7  C19       14.1560   24.6670   38.6020 C.3     0  non0        0.1839
      8  C3        15.9560   25.6910   35.0280 C.ar    0  non0        0.0072
      9  C4        14.8150   26.4470   35.3480 C.ar    0  non0       -0.0016
     10  C5        14.8130   27.8330   35.1590 C.ar    0  non0        0.0064
     11  C6        15.9450   28.4780   34.6550 C.ar    0  non0        0.0345
     12  C7        17.0830   27.7260   34.3420 C.ar    0  non0        0.0064
     13 Br         15.9490   30.3870   34.3890 Br      0  non0       -0.0490
     14  C8        17.0970   26.3430   34.5280 C.ar    0  non0       -0.0016
     15  N1        14.7830   23.6450   34.5650 N.pl3   0  non0       -0.3212
     16  H9        13.9950   23.3280   35.1110 H       0  non0        0.1476
     17  C9        14.7420   23.5280   33.1290 C.ar    0  non0        0.0452
     18  C10       15.7980   22.8850   32.4750 C.ar    0  non0        0.0143
     19  C11       15.7630   22.7410   31.0910 C.ar    0  non0        0.0013
     20  C12       14.6890   23.2620   30.3630 C.ar    0  non0        0.0001
     21  C13       13.6330   23.9250   31.0060 C.ar    0  non0        0.0012
     22  C14       12.5500   24.4580   30.2870 C.ar    0  non0        0.0000
     23  C18       13.6560   24.0560   32.4120 C.ar    0  non0        0.0131
     24  C15       11.5060   25.1080   30.9470 C.ar    0  non0        0.0000
     25  C16       11.5290   25.2310   32.3340 C.ar    0  non0        0.0000
     26  C17       12.5960   24.7070   33.0630 C.ar    0  non0        0.0012
@<TRIPOS>BOND
     1    22    24   ar
     2    22    21   ar
     3    20    21   ar
     4    20    19   ar
     5    24    25   ar
     6    21    23   ar
     7    19    18   ar
     8    25    26   ar
     9    23    26   ar
    10    23    17   ar
    11    18    17   ar
    12    17    15    1
    13    12    14   ar
    14    12    11   ar
    15    13    11    1
    16    14     8   ar
    17    15    16    1
    18    15     1    1
    19    11    10   ar
    20     8     1    1
    21     8     9   ar
    22    10     9   ar
    23     1     2    1
    24     2     3    2
    25     2     6    1
    26     2     4    1
    27     6     7    1
    28     4     5    1
@<TRIPOS>MOLECULE
24312258_Intermediate
 26 28 0 0 0
SMALL
GASTEIGER

@<TRIPOS>ATOM
      1  C2        26.7160   27.4840   32.9480 C.3     0  non0        0.1978
      2  P1        26.7950   28.2340   34.6590 P.3     0  non0        0.3650
      3  O2        27.6080   27.3400   35.5630 O.2     0  non0       -0.2557
      4  O1        27.4940   29.7040   34.5760 O.3     0  non0       -0.2901
      5  C1        28.8980   29.5700   34.7290 C.3     0  non0        0.1839
      6  O3        25.2860   28.3830   35.2560 O.3     0  non0       -0.2901
      7  C19       25.0430   29.7380   35.5990 C.3     0  non0        0.1839
      8  C3        26.5610   28.5640   31.9400 C.ar    0  non0        0.0072
      9  C4        25.3670   29.3030   31.8700 C.ar    0  non0       -0.0016
     10  C5        25.2180   30.3120   30.9130 C.ar    0  non0        0.0064
     11  C6        26.2550   30.5970   30.0210 C.ar    0  non0        0.0345
     12  C7        27.4460   29.8650   30.0950 C.ar    0  non0        0.0064
     13 Br         26.0560   31.9830   28.6970 Br      0  non0       -0.0490
     14  C8        27.6060   28.8580   31.0470 C.ar    0  non0       -0.0016
     15  N1        25.5760   26.5770   32.8670 N.pl3   0  non0       -0.3212
     16  H9        24.8500   26.6000   33.5680 H       0  non0        0.1476
     17  C9        25.4790   25.6370   31.7780 C.ar    0  non0        0.0452
     18  C10       26.5620   24.7900   31.5220 C.ar    0  non0        0.0143
     19  C11       26.4760   23.8600   30.4910 C.ar    0  non0        0.0013
     20  C12       25.3230   23.7960   29.7020 C.ar    0  non0        0.0001
     21  C13       24.2380   24.6540   29.9390 C.ar    0  non0        0.0012
     22  C14       23.0750   24.6050   29.1520 C.ar    0  non0        0.0000
     23  C18       24.3140   25.5860   30.9970 C.ar    0  non0        0.0131
     24  C15       22.0040   25.4630   29.4080 C.ar    0  non0        0.0000
     25  C16       22.0790   26.3770   30.4550 C.ar    0  non0        0.0000
     26  C17       23.2270   26.4380   31.2460 C.ar    0  non0        0.0012
@<TRIPOS>BOND
     1    13    11    1
     2    22    24   ar
     3    22    21   ar
     4    24    25   ar
     5    20    21   ar
     6    20    19   ar
     7    21    23   ar
     8    11    12   ar
     9    11    10   ar
    10    12    14   ar
    11    25    26   ar
    12    19    18   ar
    13    10     9   ar
    14    23    26   ar
    15    23    17   ar
    16    14     8   ar
    17    18    17   ar
    18    17    15    1
    19     9     8   ar
    20     8     1    1
    21    15     1    1
    22    15    16    1
    23     1     2    1
    24     4     2    1
    25     4     5    1
    26     2     6    1
    27     2     3    2
    28     6     7    1
@<TRIPOS>MOLECULE
24312258_Intermediate
 26 28 0 0 0
SMALL
GASTEIGER

@<TRIPOS>ATOM
      1  C2        16.6490   25.3060   32.2540 C.3     0  non0        0.1978
      2  P1        16.7860   26.6650   30.9760 P.3     0  non0        0.3650
      3  O2        15.4100   27.2060   30.6670 O.2     0  non0       -0.2557
      4  O1        17.7240   27.8650   31.5560 O.3     0  non0       -0.2901
      5  C1        16.9180   28.8010   32.2540 C.3     0  non0        0.1839
      6  O3        17.4520   26.0650   29.6150 O.3     0  non0       -0.2901
      7  C19       18.6160   26.8060   29.2900 C.3     0  non0        0.1839
      8  C3        17.9040   25.2440   33.0460 C.ar    0  non0        0.0072
      9  C4        19.0990   24.8100   32.4480 C.ar    0  non0       -0.0016
     10  C5        20.2780   24.7400   33.1990 C.ar    0  non0        0.0064
     11  C6        20.2770   25.1050   34.5480 C.ar    0  non0        0.0345
     12  C7        19.0880   25.5420   35.1410 C.ar    0  non0        0.0064
     13 Br         21.8950   25.0080   35.5890 Br      0  non0       -0.0490
     14  C8        17.9070   25.6180   34.4010 C.ar    0  non0       -0.0016
     15  N1        16.4330   24.0290   31.5840 N.pl3   0  non0       -0.3212
     16  H9        16.6020   23.9340   30.5920 H       0  non0        0.1476
     17  C9        15.9770   22.8880   32.3370 C.ar    0  non0        0.0452
     18  C10       14.8280   23.0170   33.1250 C.ar    0  non0        0.0143
     19  C11       14.3590   21.9200   33.8390 C.ar    0  non0        0.0013
     20  C12       15.0520   20.7060   33.7880 C.ar    0  non0        0.0001
     21  C13       16.2160   20.5700   33.0160 C.ar    0  non0        0.0012
     22  C14       16.9240   19.3590   32.9590 C.ar    0  non0        0.0000
     23  C18       16.6840   21.6770   32.2740 C.ar    0  non0        0.0131
     24  C15       18.0770   19.2430   32.1790 C.ar    0  non0        0.0000
     25  C16       18.5330   20.3340   31.4450 C.ar    0  non0        0.0000
     26  C17       17.8400   21.5440   31.4900 C.ar    0  non0        0.0012
@<TRIPOS>BOND
     1     7     6    1
     2     6     2    1
     3    16    15    1
     4     3     2    2
     5     2     4    1
     6     2     1    1
     7    25    26   ar
     8    25    24   ar
     9    26    23   ar
    10     4     5    1
    11    15     1    1
    12    15    17    1
    13    24    22   ar
    14     1     8    1
    15    23    17   ar
    16    23    21   ar
    17    17    18   ar
    18     9     8   ar
    19     9    10   ar
    20    22    21   ar
    21    21    20   ar
    22     8    14   ar
    23    18    19   ar
    24    10    11   ar
    25    20    19   ar
    26    14    12   ar
    27    11    12   ar
    28    11    13    1
@<TRIPOS>MOLECULE
103060289_Accepted
 27 28 0 0 0
SMALL
GASTEIGER

@<TRIPOS>ATOM
      1  C3        21.4480   26.6210   42.5770 C.2     0  non0        0.3355
      2  O1        22.1320   25.6200   42.7330 O.2     0  non0       -0.2483
      3  C2        20.0540   26.4990   42.0620 C.3     0  non0        0.1717
      4  C1        19.0870   27.0970   43.0730 C.3     0  non0        0.0334
      5  N3        19.9380   27.2140   40.7960 N.am    0  non0       -0.2932
      6  C11       19.9770   26.5250   39.6150 C.2     0  non0        0.2462
      7  O4        20.1100   25.3090   39.6210 O.2     0  non0       -0.2701
      8  H11       19.8270   28.2160   40.7360 H       0  non0        0.1502
      9  C12       19.8630   27.2340   38.3580 C.ar    0  non0        0.0534
     10  C13       19.8480   26.5100   37.1640 C.ar    0  non0        0.0045
     11  C14       19.7500   27.1920   35.9450 C.ar    0  non0        0.0001
     12  C15       19.6640   28.5860   35.9230 C.ar    0  non0        0.0000
     13  C16       19.6740   29.2950   37.1280 C.ar    0  non0        0.0001
     14  C17       19.7690   28.6260   38.3490 C.ar    0  non0        0.0045
     15  O2        21.9580   27.8410   42.8730 O.3     0  non0       -0.4372
     16  C4        23.2630   27.9530   42.3330 C.3     0  non0        0.2928
     17  C5        23.1830   28.4940   40.9440 C.2     0  non0        0.2718
     18  N1        24.0950   28.0990   40.0020 N.am    0  non0       -0.2663
     19  H7        24.8150   27.4400   40.2630 H       0  non0        0.1564
     20  O3        22.3050   29.2890   40.6480 O.2     0  non0       -0.2707
     21  C6        24.0220   28.6070   38.7040 C.ar    0  non0        0.1343
     22  C7        23.4000   27.8320   37.6910 C.ar    0  non0        0.0354
     23  C8        23.3200   28.3510   36.4010 C.ar    0  non0        0.0158
     24  C9        23.8830   29.6090   36.1530 C.ar    0  non0        0.0769
     25  C10       24.4790   30.3160   37.1980 C.ar    0  non0        0.1116
     26 Cl         23.8410   30.2990   34.5370 Cl      0  non0       -0.0806
     27  N2        24.5390   29.8190   38.4440 N.ar    0  non0       -0.2281
@<TRIPOS>BOND
     1    26    24    1
     2    12    11   ar
     3    12    13   ar
     4    11    10   ar
     5    24    23   ar
     6    24    25   ar
     7    23    22   ar
     8    13    14   ar
     9    10     9   ar
    10    25    27   ar
    11    22    21   ar
    12    14     9   ar
    13     9     6    1
    14    27    21   ar
    15    21    18    1
    16     6     7    2
    17     6     5   am
    18    18    19    1
    19    18    17   am
    20    20    17    2
    21     8     5    1
    22     5     3    1
    23    17    16    1
    24     3     1    1
    25     3     4    1
    26    16    15    1
    27     1     2    2
    28     1    15    1
@<TRIPOS>MOLECULE
103060289_Accepted
 27 28 0 0 0
SMALL
GASTEIGER

@<TRIPOS>ATOM
      1  C3        21.0390   23.4350   31.2390 C.2     0  non0        0.3355
      2  O1        21.9010   22.7340   30.7330 O.2     0  non0       -0.2483
      3  C2        21.1670   24.9200   31.2010 C.3     0  non0        0.1717
      4  C1        19.9530   25.5150   30.5020 C.3     0  non0        0.0334
      5  N3        21.2450   25.4380   32.5620 N.am    0  non0       -0.2932
      6  C11       22.4580   25.7800   33.0950 C.2     0  non0        0.2462
      7  O4        23.4760   25.6510   32.4290 O.2     0  non0       -0.2701
      8  H11       20.4360   25.5630   33.1530 H       0  non0        0.1502
      9  C12       22.5380   26.2920   34.4460 C.ar    0  non0        0.0534
     10  C13       23.7710   26.7150   34.9460 C.ar    0  non0        0.0045
     11  C14       23.8560   27.2010   36.2560 C.ar    0  non0        0.0001
     12  C15       22.7140   27.2660   37.0580 C.ar    0  non0        0.0000
     13  C16       21.4850   26.8440   36.5400 C.ar    0  non0        0.0001
     14  C17       21.3880   26.3600   35.2350 C.ar    0  non0        0.0045
     15  O2        19.9650   22.8620   31.8350 O.3     0  non0       -0.4372
     16  C4        20.3940   21.7910   32.6580 C.3     0  non0        0.2928
     17  C5        20.7160   22.3070   34.0210 C.2     0  non0        0.2718
     18  N1        21.7330   21.7440   34.7440 N.am    0  non0       -0.2663
     19  H7        22.2570   20.9810   34.3400 H       0  non0        0.1564
     20  O3        20.0720   23.2320   34.4910 O.2     0  non0       -0.2707
     21  C6        22.0320   22.2250   36.0200 C.ar    0  non0        0.1343
     22  C7        23.0930   23.1530   36.1790 C.ar    0  non0        0.0354
     23  C8        23.3780   23.6380   37.4530 C.ar    0  non0        0.0158
     24  C9        22.6170   23.1660   38.5300 C.ar    0  non0        0.0769
     25  C10       21.5870   22.2530   38.2990 C.ar    0  non0        0.1116
     26 Cl         22.9520   23.7180   40.1650 Cl      0  non0       -0.0806
     27  N2        21.3060   21.8020   37.0670 N.ar    0  non0       -0.2281
@<TRIPOS>BOND
     1     4     3    1
     2     2     1    2
     3     3     1    1
     4     3     5    1
     5     1    15    1
     6    15    16    1
     7     7     6    2
     8     5     6   am
     9     5     8    1
    10    16    17    1
    11     6     9    1
    12    17    20    2
    13    17    18   am
    14    19    18    1
    15     9    10   ar
    16     9    14   ar
    17    18    21    1
    18    10    11   ar
    19    14    13   ar
    20    21    22   ar
    21    21    27   ar
    22    22    23   ar
    23    11    12   ar
    24    13    12   ar
    25    27    25   ar
    26    23    24   ar
    27    25    24   ar
    28    24    26    1
@<TRIPOS>MOLECULE
103060289_Accepted
 27 28 0 0 0
SMALL
GASTEIGER

@<TRIPOS>ATOM
      1  C3        25.5310   22.7100   39.4210 C.2     0  non0        0.3355
      2  O1        24.9030   22.4720   40.4410 O.2     0  non0       -0.2483
      3  C2        25.8340   24.1200   39.0430 C.3     0  non0        0.1717
      4  C1        27.3410   24.3060   38.9440 C.3     0  non0        0.0334
      5  N3        25.2220   24.4210   37.7530 N.am    0  non0       -0.2932
      6  C11       24.0530   25.1300   37.7000 C.2     0  non0        0.2462
      7  O4        23.5210   25.5110   38.7330 O.2     0  non0       -0.2701
      8  H11       25.6200   24.1300   36.8720 H       0  non0        0.1502
      9  C12       23.4440   25.4280   36.4200 C.ar    0  non0        0.0534
     10  C13       22.2780   26.1950   36.3800 C.ar    0  non0        0.0045
     11  C14       21.6790   26.4760   35.1460 C.ar    0  non0        0.0001
     12  C15       22.2450   25.9950   33.9630 C.ar    0  non0        0.0000
     13  C16       23.4160   25.2330   34.0210 C.ar    0  non0        0.0001
     14  C17       24.0230   24.9490   35.2440 C.ar    0  non0        0.0045
     15  O2        25.9530   21.6910   38.6330 O.3     0  non0       -0.4372
     16  C4        24.8970   20.7640   38.4510 C.3     0  non0        0.2928
     17  C5        24.0960   21.1520   37.2520 C.2     0  non0        0.2718
     18  N1        22.7480   20.9140   37.2240 N.am    0  non0       -0.2663
     19  H7        22.3100   20.4770   38.0230 H       0  non0        0.1564
     20  O3        24.6430   21.6810   36.2970 O.2     0  non0       -0.2707
     21  C6        21.9990   21.2740   36.1020 C.ar    0  non0        0.1343
     22  C7        21.2910   22.5030   36.1080 C.ar    0  non0        0.0354
     23  C8        20.5560   22.8620   34.9800 C.ar    0  non0        0.0158
     24  C9        20.5270   21.9760   33.8960 C.ar    0  non0        0.0769
     25  C10       21.2480   20.7840   33.9600 C.ar    0  non0        0.1116
     26 Cl         19.5890   22.3600   32.4590 Cl      0  non0       -0.0806
     27  N2        21.9690   20.4510   35.0420 N.ar    0  non0       -0.2281
@<TRIPOS>BOND
     1    26    24    1
     2    24    25   ar
     3    24    23   ar
     4    25    27   ar
     5    12    13   ar
     6    12    11   ar
     7    13    14   ar
     8    23    22   ar
     9    27    21   ar
    10    11    10   ar
    11    14     9   ar
    12    21    22   ar
    13    21    18    1
    14    20    17    2
    15    10     9   ar
    16     9     6    1
    17     8     5    1
    18    18    17   am
    19    18    19    1
    20    17    16    1
    21     6     5   am
    22     6     7    2
    23     5     3    1
    24    16    15    1
    25    15     1    1
    26     4     3    1
    27     3     1    1
    28     1     2    2
@<TRIPOS>MOLECULE
99454415_Intermediate
 31 34 0 0 0
SMALL
GASTEIGER

@<TRIPOS>ATOM
      1  C13       20.9760   23.9640   32.0100 C.2     0  non0        0.2079
      2  N2        21.8640   24.9220   32.4210 N.am    0  non0       -0.2858
      3  O1        21.2150   22.7830   32.2130 O.2     0  non0       -0.2769
      4  H18       21.6590   25.8960   32.2470 H       0  non0        0.1548
      5  C2        19.6870   24.3730   31.2960 C.3     0  non0        0.0267
      6  C1        19.5060   25.8630   31.4020 C.3     0  non0       -0.0121
      7  C3        19.6450   23.9120   29.9280 C.3     0  non0       -0.0333
      8  C4        18.1890   23.5700   30.3250 C.3     0  non0       -0.0781
      9  N1        18.5870   23.6740   31.7450 N.4     0  non0        0.3949
     10  H8        18.7340   22.8900   32.3660 H       0  non0       -0.0788
     11  C5        17.6380   24.3950   32.5720 C.3     0  non0       -0.0718
     12  C6        17.4010   23.6250   33.8610 C.3     0  non0        0.0036
     13  C7        17.6910   24.5040   35.0240 C.ar    0  non0       -0.0243
     14  C8        18.2970   25.7580   34.8300 C.ar    0  non0       -0.0043
     15  C9        18.5820   26.5790   35.9250 C.ar    0  non0       -0.0003
     16  C10       18.2630   26.1610   37.2200 C.ar    0  non0       -0.0000
     17  C11       17.6530   24.9180   37.4110 C.ar    0  non0       -0.0003
     18  C12       17.3630   24.0900   36.3250 C.ar    0  non0       -0.0043
     19  C14       23.0310   24.5530   33.0690 C.ar    0  non0        0.0465
     20  C15       24.0900   24.0260   32.3250 C.ar    0  non0        0.0144
     21  C16       25.2680   23.6410   32.9760 C.ar    0  non0        0.0013
     22  C17       25.3840   23.7830   34.3600 C.ar    0  non0       -0.0002
     23  C18       24.3170   24.3170   35.0920 C.ar    0  non0       -0.0027
     24  C19       23.1390   24.7070   34.4530 C.ar    0  non0       -0.0043
     25  C20       22.0170   25.2770   35.2210 C.3     0  non0        0.0539
     26  C21       21.4750   24.2480   36.1440 C.ar    0  non0       -0.0177
     27  C22       20.9390   23.0510   35.6380 C.ar    0  non0       -0.0039
     28  C23       20.4180   22.0870   36.5080 C.ar    0  non0       -0.0003
     29  C24       20.4280   22.3050   37.8890 C.ar    0  non0       -0.0000
     30  C25       20.9670   23.4960   38.3920 C.ar    0  non0       -0.0003
     31  C26       21.4910   24.4610   37.5320 C.ar    0  non0       -0.0039
@<TRIPOS>BOND
     1     7     8    1
     2     7     5    1
     3     8     9    1
     4     5     6    1
     5     5     9    1
     6     5     1    1
     7     9    10    1
     8     9    11    1
     9     1     3    2
    10     1     2   am
    11     4     2    1
    12    20    21   ar
    13    20    19   ar
    14     2    19    1
    15    11    12    1
    16    21    22   ar
    17    19    24   ar
    18    12    13    1
    19    22    23   ar
    20    24    23   ar
    21    24    25    1
    22    14    13   ar
    23    14    15   ar
    24    13    18   ar
    25    25    26    1
    26    27    26   ar
    27    27    28   ar
    28    15    16   ar
    29    26    31   ar
    30    18    17   ar
    31    28    29   ar
    32    16    17   ar
    33    31    30   ar
    34    29    30   ar
@<TRIPOS>MOLECULE
99454415_Intermediate
 31 34 0 0 0
SMALL
GASTEIGER

@<TRIPOS>ATOM
      1  C13       17.3340   24.8620   33.9270 C.2     0  non0        0.2079
      2  N2        16.8750   23.6510   33.4810 N.am    0  non0       -0.2858
      3  O1        16.9110   25.8960   33.4330 O.2     0  non0       -0.2769
      4  H18       17.2320   22.8020   33.8950 H       0  non0        0.1548
      5  C2        18.3780   24.9190   35.0450 C.3     0  non0        0.0267
      6  C1        18.5440   23.5500   35.6460 C.3     0  non0       -0.0121
      7  C3        19.6320   25.4770   34.5970 C.3     0  non0       -0.0333
      8  C4        19.5320   26.2110   35.9560 C.3     0  non0       -0.0781
      9  N1        18.0910   25.8800   35.9890 N.4     0  non0        0.3949
     10  H8        17.3410   26.5320   35.8030 H       0  non0       -0.0788
     11  C5        17.6230   25.4170   37.2820 C.3     0  non0       -0.0718
     12  C6        16.3170   26.1150   37.6280 C.3     0  non0        0.0036
     13  C7        15.2700   25.0980   37.9070 C.ar    0  non0       -0.0243
     14  C8        15.5130   23.7390   37.6380 C.ar    0  non0       -0.0043
     15  C9        14.5240   22.7840   37.8870 C.ar    0  non0       -0.0003
     16  C10       13.2860   23.1720   38.4080 C.ar    0  non0       -0.0000
     17  C11       13.0480   24.5230   38.6810 C.ar    0  non0       -0.0003
     18  C12       14.0290   25.4850   38.4380 C.ar    0  non0       -0.0043
     19  C14       15.9290   23.5990   32.4710 C.ar    0  non0        0.0465
     20  C15       16.3230   23.8310   31.1510 C.ar    0  non0        0.0144
     21  C16       15.3690   23.7900   30.1270 C.ar    0  non0        0.0013
     22  C17       14.0320   23.5180   30.4230 C.ar    0  non0       -0.0002
     23  C18       13.6520   23.2820   31.7500 C.ar    0  non0       -0.0027
     24  C19       14.5960   23.3180   32.7780 C.ar    0  non0       -0.0043
     25  C20       14.2000   23.0610   34.1750 C.3     0  non0        0.0539
     26  C21       13.2830   24.1370   34.6350 C.ar    0  non0       -0.0177
     27  C22       13.7150   25.4740   34.6620 C.ar    0  non0       -0.0039
     28  C23       12.8550   26.4840   35.1070 C.ar    0  non0       -0.0003
     29  C24       11.5580   26.1720   35.5260 C.ar    0  non0       -0.0000
     30  C25       11.1280   24.8390   35.4940 C.ar    0  non0       -0.0003
     31  C26       11.9780   23.8260   35.0500 C.ar    0  non0       -0.0039
@<TRIPOS>BOND
     1    21    22   ar
     2    21    20   ar
     3    22    23   ar
     4    20    19   ar
     5    23    24   ar
     6    19    24   ar
     7    19     2    1
     8    24    25    1
     9     3     1    2
    10     2     4    1
    11     2     1   am
    12     1     5    1
    13    25    26    1
    14     7     5    1
    15     7     8    1
    16    26    27   ar
    17    26    31   ar
    18    27    28   ar
    19     5     6    1
    20     5     9    1
    21    31    30   ar
    22    28    29   ar
    23    30    29   ar
    24    10     9    1
    25     8     9    1
    26     9    11    1
    27    11    12    1
    28    12    13    1
    29    14    15   ar
    30    14    13   ar
    31    15    16   ar
    32    13    18   ar
    33    16    17   ar
    34    18    17   ar
@<TRIPOS>MOLECULE
99454415_Intermediate
 31 34 0 0 0
SMALL
GASTEIGER

@<TRIPOS>ATOM
      1  C13       17.7200   26.7410   34.8220 C.2     0  non0        0.2079
      2  N2        17.3000   25.8800   33.8440 N.am    0  non0       -0.2858
      3  O1        17.4320   27.9270   34.7570 O.2     0  non0       -0.2769
      4  H18       17.5450   24.9010   33.9050 H       0  non0        0.1548
      5  C2        18.5510   26.2180   35.9960 C.3     0  non0        0.0267
      6  C1        18.5540   24.7140   35.9770 C.3     0  non0       -0.0121
      7  C3        19.8860   26.7690   36.0130 C.3     0  non0       -0.0333
      8  C4        19.5750   26.8850   37.5250 C.3     0  non0       -0.0781
      9  N1        18.1390   26.7310   37.2070 N.4     0  non0        0.3949
     10  H8        17.4610   27.4800   37.2080 H       0  non0       -0.0788
     11  C5        17.4310   25.8320   38.0990 C.3     0  non0       -0.0718
     12  C6        16.1140   26.4660   38.5160 C.3     0  non0        0.0036
     13  C7        14.9950   25.5460   38.1830 C.ar    0  non0       -0.0243
     14  C8        15.2280   24.4010   37.4020 C.ar    0  non0       -0.0043
     15  C9        14.1730   23.5430   37.0770 C.ar    0  non0       -0.0003
     16  C10       12.8790   23.8170   37.5290 C.ar    0  non0       -0.0000
     17  C11       12.6490   24.9520   38.3120 C.ar    0  non0       -0.0003
     18  C12       13.6950   25.8150   38.6440 C.ar    0  non0       -0.0043
     19  C14       16.5470   26.3520   32.7820 C.ar    0  non0        0.0465
     20  C15       17.1780   27.0610   31.7570 C.ar    0  non0        0.0144
     21  C16       16.4190   27.5500   30.6870 C.ar    0  non0        0.0013
     22  C17       15.0410   27.3300   30.6440 C.ar    0  non0       -0.0002
     23  C18       14.4230   26.6130   31.6750 C.ar    0  non0       -0.0027
     24  C19       15.1700   26.1180   32.7450 C.ar    0  non0       -0.0043
     25  C20       14.5230   25.3560   33.8290 C.3     0  non0        0.0539
     26  C21       13.5830   26.2410   34.5640 C.ar    0  non0       -0.0177
     27  C22       14.0550   27.3920   35.2170 C.ar    0  non0       -0.0039
     28  C23       13.1700   28.2180   35.9190 C.ar    0  non0       -0.0003
     29  C24       11.8080   27.9060   35.9740 C.ar    0  non0       -0.0000
     30  C25       11.3390   26.7610   35.3190 C.ar    0  non0       -0.0003
     31  C26       12.2130   25.9330   34.6150 C.ar    0  non0       -0.0039
@<TRIPOS>BOND
     1    22    21   ar
     2    22    23   ar
     3    21    20   ar
     4    23    24   ar
     5    20    19   ar
     6    24    19   ar
     7    24    25    1
     8    19     2    1
     9    25    26    1
    10     2     4    1
    11     2     1   am
    12    26    31   ar
    13    26    27   ar
    14    31    30   ar
    15     3     1    2
    16     1     5    1
    17    27    28   ar
    18    30    29   ar
    19    28    29   ar
    20     6     5    1
    21     5     7    1
    22     5     9    1
    23     7     8    1
    24    15    14   ar
    25    15    16   ar
    26     9    10    1
    27     9     8    1
    28     9    11    1
    29    14    13   ar
    30    16    17   ar
    31    11    12    1
    32    13    12    1
    33    13    18   ar
    34    17    18   ar
@<TRIPOS>MOLECULE
17438626_Intermediate
 23 25 0 0 0
SMALL
GASTEIGER

@<TRIPOS>ATOM
      1  C1        15.3850   29.7270   33.9100 C.3     0  non0        0.1475
      2  O1        16.4700   30.4500   34.4670 O.3     0  non0       -0.3749
      3  H1        16.1360   31.2170   34.9380 H       0  non0        0.2115
      4  C2        15.8730   28.4240   33.3870 C.ar    0  non0        0.0096
      5  C3        15.2670   27.8400   32.2620 C.ar    0  non0       -0.0014
      6  C4        15.7200   26.6080   31.7770 C.ar    0  non0       -0.0002
      7  C5        16.7800   25.9500   32.4070 C.ar    0  non0       -0.0000
      8  C6        17.3880   26.5370   33.5230 C.ar    0  non0       -0.0002
      9  C7        16.9450   27.7660   34.0130 C.ar    0  non0       -0.0014
     10  C8        14.7890   30.5070   32.8090 C.ar    0  non0        0.0096
     11  C9        15.6000   31.3580   32.0560 C.ar    0  non0       -0.0014
     12  C10       15.0390   32.1100   31.0170 C.ar    0  non0       -0.0002
     13  C11       13.6750   32.0080   30.7340 C.ar    0  non0       -0.0000
     14  C12       12.8760   31.1470   31.4920 C.ar    0  non0       -0.0002
     15  C13       13.4260   30.3910   32.5280 C.ar    0  non0       -0.0014
     16  C14       14.3600   29.4860   34.9590 C.ar    0  non0        0.0432
     17  C15       13.7770   28.2170   35.1030 C.ar    0  non0        0.0016
     18  C16       12.8030   27.9960   36.0830 C.ar    0  non0       -0.0000
     19  C17       12.4070   29.0350   36.9290 C.ar    0  non0        0.0031
     20  C18       12.9920   30.2970   36.7890 C.ar    0  non0        0.0364
     21  C19       13.9660   30.5280   35.8170 C.ar    0  non0        0.1324
     22  O2        14.5140   31.6940   35.6930 O.3     0  non0       -0.5057
     23  H16       13.8350   32.3490   35.5160 H       0  non0        0.2922
@<TRIPOS>BOND
     1    13    12   ar
     2    13    14   ar
     3    12    11   ar
     4    14    15   ar
     5     6     5   ar
     6     6     7   ar
     7    11    10   ar
     8     5     4   ar
     9     7     8   ar
    10    15    10   ar
    11    10     1    1
    12     4     1    1
    13     4     9   ar
    14     8     9   ar
    15     1     2    1
    16     1    16    1
    17     2     3    1
    18    16    17   ar
    19    16    21   ar
    20    17    18   ar
    21    23    22    1
    22    22    21    1
    23    21    20   ar
    24    18    19   ar
    25    20    19   ar
@<TRIPOS>MOLECULE
17438626_Intermediate
 23 25 0 0 0
SMALL
GASTEIGER

@<TRIPOS>ATOM
      1  C1        16.1990   30.4330   33.6750 C.3     0  non0        0.1475
      2  O1        15.5210   31.3680   34.4990 O.3     0  non0       -0.3749
      3  H1        16.0400   32.1740   34.5610 H       0  non0        0.2115
      4  C2        17.6670   30.6040   33.8350 C.ar    0  non0        0.0096
      5  C3        18.5310   30.3560   32.7550 C.ar    0  non0       -0.0014
      6  C4        19.9140   30.5070   32.9090 C.ar    0  non0       -0.0002
      7  C5        20.4450   30.9060   34.1380 C.ar    0  non0       -0.0000
      8  C6        19.5830   31.1610   35.2110 C.ar    0  non0       -0.0002
      9  C7        18.2020   31.0160   35.0670 C.ar    0  non0       -0.0014
     10  C8        15.8280   30.6610   32.2650 C.ar    0  non0        0.0096
     11  C9        15.5060   31.9530   31.8420 C.ar    0  non0       -0.0014
     12  C10       15.1410   32.1740   30.5090 C.ar    0  non0       -0.0002
     13  C11       15.1010   31.1090   29.6060 C.ar    0  non0       -0.0000
     14  C12       15.4320   29.8220   30.0420 C.ar    0  non0       -0.0002
     15  C13       15.7990   29.5920   31.3680 C.ar    0  non0       -0.0014
     16  C14       15.8150   29.0540   34.0720 C.ar    0  non0        0.0432
     17  C15       16.7970   28.0600   34.2210 C.ar    0  non0        0.0016
     18  C16       16.4310   26.7590   34.5830 C.ar    0  non0       -0.0000
     19  C17       15.0900   26.4380   34.8040 C.ar    0  non0        0.0031
     20  C18       14.1140   27.4300   34.6600 C.ar    0  non0        0.0364
     21  C19       14.4660   28.7320   34.3030 C.ar    0  non0        0.1324
     22  O2        13.5640   29.6520   34.1790 O.3     0  non0       -0.5057
     23  H16       13.9440   30.4140   33.7380 H       0  non0        0.2922
@<TRIPOS>BOND
     1    13    14   ar
     2    13    12   ar
     3    14    15   ar
     4    12    11   ar
     5    15    10   ar
     6    11    10   ar
     7    10     1    1
     8     5     6   ar
     9     5     4   ar
    10     6     7   ar
    11     1     4    1
    12     1    16    1
    13     1     2    1
    14    23    22    1
    15     4     9   ar
    16    16    17   ar
    17    16    21   ar
    18     7     8   ar
    19    22    21    1
    20    17    18   ar
    21    21    20   ar
    22     2     3    1
    23    18    19   ar
    24    20    19   ar
    25     9     8   ar
@<TRIPOS>MOLECULE
17438626_Intermediate
 23 25 0 0 0
SMALL
GASTEIGER

@<TRIPOS>ATOM
      1  C1        16.6600   28.2530   29.4790 C.3     0  non0        0.1475
      2  O1        17.8010   28.2480   28.6380 O.3     0  non0       -0.3749
      3  H1        17.5280   28.3770   27.7270 H       0  non0        0.2115
      4  C2        15.9700   29.5650   29.3720 C.ar    0  non0        0.0096
      5  C3        16.7080   30.7350   29.1260 C.ar    0  non0       -0.0014
      6  C4        16.0600   31.9720   29.0360 C.ar    0  non0       -0.0002
      7  C5        14.6730   32.0520   29.1880 C.ar    0  non0       -0.0000
      8  C6        13.9380   30.8840   29.4250 C.ar    0  non0       -0.0002
      9  C7        14.5750   29.6460   29.5140 C.ar    0  non0       -0.0014
     10  C8        17.0780   28.0300   30.8770 C.ar    0  non0        0.0096
     11  C9        18.1950   27.2340   31.1380 C.ar    0  non0       -0.0014
     12  C10       18.5900   27.0090   32.4620 C.ar    0  non0       -0.0002
     13  C11       17.8720   27.5790   33.5170 C.ar    0  non0       -0.0000
     14  C12       16.7590   28.3800   33.2390 C.ar    0  non0       -0.0002
     15  C13       16.3590   28.6120   31.9220 C.ar    0  non0       -0.0014
     16  C14       15.7320   27.1700   29.0610 C.ar    0  non0        0.0432
     17  C15       15.1370   26.3360   30.0210 C.ar    0  non0        0.0016
     18  C16       14.2730   25.3090   29.6230 C.ar    0  non0       -0.0000
     19  C17       13.9930   25.1080   28.2690 C.ar    0  non0        0.0031
     20  C18       14.5820   25.9430   27.3140 C.ar    0  non0        0.0364
     21  C19       15.4420   26.9720   27.6990 C.ar    0  non0        0.1324
     22  O2        15.9800   27.7500   26.8160 O.3     0  non0       -0.5057
     23  H16       16.6900   28.2520   27.2220 H       0  non0        0.2922
@<TRIPOS>BOND
     1    22    23    1
     2    22    21    1
     3    20    21   ar
     4    20    19   ar
     5    21    16   ar
     6     3     2    1
     7    19    18   ar
     8     2     1    1
     9     6     5   ar
    10     6     7   ar
    11    16     1    1
    12    16    17   ar
    13     5     4   ar
    14     7     8   ar
    15     4     1    1
    16     4     9   ar
    17     8     9   ar
    18     1    10    1
    19    18    17   ar
    20    10    11   ar
    21    10    15   ar
    22    11    12   ar
    23    15    14   ar
    24    12    13   ar
    25    14    13   ar
@<TRIPOS>MOLECULE
14727027_Intermediate
 19 21 0 0 0
SMALL
GASTEIGER

@<TRIPOS>ATOM
      1  C1        19.1020   29.5240   30.3550 C.3     0  non0        0.0314
      2  C2        19.0780   28.5720   29.2550 C.ar    0  non0       -0.0151
      3  C3        20.2870   28.2080   28.6910 C.ar    0  non0        0.0052
      4  C4        21.5710   28.7240   29.1390 C.3     0  non0        0.0379
      5  S1        20.0980   27.0870   27.4160 S.2     0  non0       -0.0725
      6  C5        18.4040   27.0780   27.5990 C.ar    0  non0        0.1145
      7  C6        17.9660   27.9100   28.6180 C.ar    0  non0        0.0518
      8  C7        16.5770   27.9280   28.8040 C.ar    0  non0        0.1355
      9  N2        15.7630   27.2130   27.9920 N.ar    0  non0       -0.2089
     10  C14       16.3360   26.4470   27.0570 C.ar    0  non0        0.2005
     11  N3        17.6390   26.3210   26.7920 N.ar    0  non0       -0.2173
     12  N1        16.0320   28.7230   29.8760 N.pl3   0  non0       -0.2978
     13  H7        16.1710   28.4330   30.8330 H       0  non0        0.1536
     14  C8        15.2880   29.9330   29.5760 C.ar    0  non0        0.0494
     15  C9        13.9200   30.0180   29.8860 C.ar    0  non0        0.0146
     16  C10       13.2010   31.1810   29.5840 C.ar    0  non0        0.0013
     17  C11       13.8380   32.2650   28.9770 C.ar    0  non0        0.0001
     18  C12       15.2010   32.1810   28.6740 C.ar    0  non0        0.0013
     19  C13       15.9280   31.0270   28.9730 C.ar    0  non0        0.0146
@<TRIPOS>BOND
     1    11    10   ar
     2    11     6   ar
     3    10     9   ar
     4     5     6   ar
     5     5     3   ar
     6     6     7   ar
     7     9     8   ar
     8     7     8   ar
     9     7     2   ar
    10    18    19   ar
    11    18    17   ar
    12     3     4    1
    13     3     2   ar
    14     8    12    1
    15    19    14   ar
    16    17    16   ar
    17     2     1    1
    18    14    12    1
    19    14    15   ar
    20    16    15   ar
    21    12    13    1
@<TRIPOS>MOLECULE
14727027_Intermediate
 19 21 0 0 0
SMALL
GASTEIGER

@<TRIPOS>ATOM
      1  C1        16.6080   26.7660   31.0750 C.3     0  non0        0.0314
      2  C2        17.0890   27.2770   32.3490 C.ar    0  non0       -0.0151
      3  C3        18.1580   26.6300   32.9410 C.ar    0  non0        0.0052
      4  C4        18.8220   25.4740   32.3580 C.3     0  non0        0.0379
      5  S1        18.6070   27.3430   34.4280 S.2     0  non0       -0.0725
      6  C5        17.3790   28.5170   34.3000 C.ar    0  non0        0.1145
      7  C6        16.6260   28.3900   33.1430 C.ar    0  non0        0.0518
      8  C7        15.6070   29.3400   32.9990 C.ar    0  non0        0.1355
      9  N2        15.3800   30.2610   33.9660 N.ar    0  non0       -0.2089
     10  C14       16.1990   30.2650   35.0230 C.ar    0  non0        0.2005
     11  N3        17.2170   29.4350   35.2700 N.ar    0  non0       -0.2173
     12  N1        14.8050   29.3200   31.8010 N.pl3   0  non0       -0.2978
     13  H7        14.1110   28.5980   31.6770 H       0  non0        0.1536
     14  C8        14.9990   30.3350   30.7810 C.ar    0  non0        0.0494
     15  C9        14.0180   31.3170   30.5640 C.ar    0  non0        0.0146
     16  C10       14.2000   32.2870   29.5710 C.ar    0  non0        0.0013
     17  C11       15.3600   32.2880   28.7920 C.ar    0  non0        0.0001
     18  C12       16.3390   31.3140   29.0140 C.ar    0  non0        0.0013
     19  C13       16.1680   30.3430   30.0040 C.ar    0  non0        0.0146
@<TRIPOS>BOND
     1    17    18   ar
     2    17    16   ar
     3    18    19   ar
     4    16    15   ar
     5    19    14   ar
     6    15    14   ar
     7    14    12    1
     8     1     2    1
     9    13    12    1
    10    12     8    1
    11     2     3   ar
    12     2     7   ar
    13     4     3    1
    14     3     5   ar
    15     8     7   ar
    16     8     9   ar
    17     7     6   ar
    18     9    10   ar
    19     6     5   ar
    20     6    11   ar
    21    10    11   ar
@<TRIPOS>MOLECULE
14727027_Intermediate
 19 21 0 0 0
SMALL
GASTEIGER

@<TRIPOS>ATOM
      1  C1        14.9730   27.1980   30.3170 C.3     0  non0        0.0314
      2  C2        14.0170   28.2350   29.9630 C.ar    0  non0       -0.0151
      3  C3        12.6960   27.8620   29.7910 C.ar    0  non0        0.0052
      4  C4        12.2190   26.4970   29.9450 C.3     0  non0        0.0379
      5  S1        11.6970   29.1850   29.3790 S.2     0  non0       -0.0725
      6  C5        13.0130   30.2670   29.4230 C.ar    0  non0        0.1145
      7  C6        14.2100   29.6490   29.7500 C.ar    0  non0        0.0518
      8  C7        15.3170   30.5050   29.8000 C.ar    0  non0        0.1355
      9  N2        15.1890   31.8180   29.4930 N.ar    0  non0       -0.2089
     10  C14       13.9630   32.2710   29.2060 C.ar    0  non0        0.2005
     11  N3        12.8270   31.5700   29.1470 N.ar    0  non0       -0.2173
     12  N1        16.5960   29.9630   30.1840 N.pl3   0  non0       -0.2978
     13  H7        16.7530   29.6830   31.1410 H       0  non0        0.1536
     14  C8        17.6500   29.8220   29.1960 C.ar    0  non0        0.0494
     15  C9        18.8320   30.5720   29.3100 C.ar    0  non0        0.0146
     16  C10       19.8430   30.4450   28.3500 C.ar    0  non0        0.0013
     17  C11       19.6860   29.5680   27.2740 C.ar    0  non0        0.0001
     18  C12       18.5110   28.8160   27.1650 C.ar    0  non0        0.0013
     19  C13       17.4980   28.9340   28.1190 C.ar    0  non0        0.0146
@<TRIPOS>BOND
     1    18    17   ar
     2    18    19   ar
     3    17    16   ar
     4    19    14   ar
     5    16    15   ar
     6    11    10   ar
     7    11     6   ar
     8    14    15   ar
     9    14    12    1
    10    10     9   ar
    11     5     6   ar
    12     5     3   ar
    13     6     7   ar
    14     9     8   ar
    15     7     8   ar
    16     7     2   ar
    17     3     4    1
    18     3     2   ar
    19     8    12    1
    20     2     1    1
    21    12    13    1
@<TRIPOS>MOLECULE
24292405_Intermediate
 27 30 0 0 0
SMALL
GASTEIGER

@<TRIPOS>ATOM
      1  C1        11.5820   30.3760   28.4960 C.3     0  non0        0.0238
      2  C2        11.2320   31.3040   29.6510 C.3     0  non0        0.0330
      3  C3        11.9860   30.6870   30.8200 C.3     0  non0        0.1741
      4  N1        11.9940   29.2630   30.5330 N.pl3   0  non0       -0.2802
      5  C12       11.6020   29.0030   29.1550 C.3     0  non0        0.0932
      6  C13       12.3310   28.1820   31.4260 C.ar    0  non0        0.1634
      7  N2        12.0040   28.2120   32.6700 N.ar    0  non0       -0.2240
      8  C14       12.4670   27.0630   33.2790 C.ar    0  non0        0.0897
      9  C15       12.3160   26.7490   34.5990 C.ar    0  non0        0.0183
     10  C21       13.1310   26.1820   32.4530 C.ar    0  non0        0.0572
     11  C16       12.8320   25.5430   35.1060 C.ar    0  non0        0.0020
     12  C20       11.6430   27.6270   35.4650 C.ar    0  non0        0.0020
     13  C17       12.6660   25.2160   36.4560 C.ar    0  non0        0.0067
     14  C18       11.9900   26.0890   37.3120 C.ar    0  non0        0.0346
     15  C19       11.4810   27.2920   36.8100 C.ar    0  non0        0.0067
     16 Br         11.7550   25.6480   39.1740 Br      0  non0       -0.0490
     17  S1        13.1790   26.8180   30.8640 S.2     0  non0       -0.0510
     18  C4        13.3770   31.2190   30.8900 C.2     0  non0        0.3355
     19  O1        13.6500   32.2880   30.3640 O.2     0  non0       -0.2483
     20  O2        14.3400   30.5180   31.5360 O.3     0  non0       -0.4424
     21  C5        14.4500   30.9850   32.8710 C.3     0  non0        0.2351
     22  C6        14.9200   29.8800   33.7460 C.ar    0  non0        0.0213
     23  C7        14.6110   29.8790   35.1160 C.ar    0  non0       -0.0007
     24  C8        15.0640   28.8440   35.9420 C.ar    0  non0       -0.0002
     25  C9        15.8260   27.8020   35.4070 C.ar    0  non0       -0.0000
     26  C10       16.1260   27.7990   34.0410 C.ar    0  non0       -0.0002
     27  C11       15.6780   28.8250   33.2100 C.ar    0  non0       -0.0007
@<TRIPOS>BOND
     1     1     5    1
     2     1     2    1
     3     5     4    1
     4     2     3    1
     5    19    18    2
     6     4     3    1
     7     4     6    1
     8     3    18    1
     9    17     6   ar
    10    17    10   ar
    11    18    20    1
    12     6     7   ar
    13    20    21    1
    14    10     8   ar
    15     7     8   ar
    16    21    22    1
    17    27    22   ar
    18    27    26   ar
    19     8     9    1
    20    22    23   ar
    21    26    25   ar
    22     9    11   ar
    23     9    12   ar
    24    11    13   ar
    25    23    24   ar
    26    25    24   ar
    27    12    15   ar
    28    13    14   ar
    29    15    14   ar
    30    14    16    1
@<TRIPOS>MOLECULE
24292405_Intermediate
 27 30 0 0 0
SMALL
GASTEIGER

@<TRIPOS>ATOM
      1  C1        19.5750   26.2920   38.5530 C.3     0  non0        0.0238
      2  C2        19.1510   25.0290   37.8160 C.3     0  non0        0.0330
      3  C3        20.4580   24.5360   37.2130 C.3     0  non0        0.1741
      4  N1        21.2140   25.7470   36.9490 N.pl3   0  non0       -0.2802
      5  C12       20.6220   26.8930   37.6260 C.3     0  non0        0.0932
      6  C13       22.3990   25.8930   36.1410 C.ar    0  non0        0.1634
      7  N2        22.5530   25.2290   35.0500 N.ar    0  non0       -0.2240
      8  C14       23.7780   25.5540   34.5000 C.ar    0  non0        0.0897
      9  C15       24.2900   25.0400   33.3450 C.ar    0  non0        0.0183
     10  C21       24.5150   26.4810   35.2060 C.ar    0  non0        0.0572
     11  C16       25.5540   25.4510   32.8840 C.ar    0  non0        0.0020
     12  C20       23.5610   24.0940   32.6040 C.ar    0  non0        0.0020
     13  C17       26.0730   24.9320   31.6930 C.ar    0  non0        0.0067
     14  C18       25.3420   23.9970   30.9550 C.ar    0  non0        0.0346
     15  C19       24.0870   23.5830   31.4170 C.ar    0  non0        0.0067
     16 Br         26.0480   23.2770   29.3130 Br      0  non0       -0.0490
     17  S1        23.6450   26.9550   36.6030 S.2     0  non0       -0.0510
     18  C4        21.1850   23.6590   38.1770 C.2     0  non0        0.3355
     19  O1        20.5790   23.1210   39.0910 O.2     0  non0       -0.2483
     20  O2        22.5190   23.4610   38.0390 O.3     0  non0       -0.4424
     21  C5        22.7450   22.2910   37.2690 C.3     0  non0        0.2351
     22  C6        24.0440   22.4090   36.5570 C.ar    0  non0        0.0213
     23  C7        25.0500   23.2530   37.0550 C.ar    0  non0       -0.0007
     24  C8        26.2690   23.3740   36.3770 C.ar    0  non0       -0.0002
     25  C9        26.4940   22.6520   35.2020 C.ar    0  non0       -0.0000
     26  C10       25.4950   21.8050   34.7120 C.ar    0  non0       -0.0002
     27  C11       24.2780   21.6780   35.3810 C.ar    0  non0       -0.0007
@<TRIPOS>BOND
     1    16    14    1
     2    14    15   ar
     3    14    13   ar
     4    15    12   ar
     5    13    11   ar
     6    12     9   ar
     7    11     9   ar
     8     9     8    1
     9     8     7   ar
    10     8    10   ar
    11    26    25   ar
    12    26    27   ar
    13     7     6   ar
    14    25    24   ar
    15    10    17   ar
    16    27    22   ar
    17     6    17   ar
    18     6     4    1
    19    24    23   ar
    20    22    23   ar
    21    22    21    1
    22     4     3    1
    23     4     5    1
    24     3     2    1
    25     3    18    1
    26    21    20    1
    27     5     1    1
    28     2     1    1
    29    20    18    1
    30    18    19    2
@<TRIPOS>MOLECULE
24292405_Intermediate
 27 30 0 0 0
SMALL
GASTEIGER

@<TRIPOS>ATOM
      1  C1        24.9690   25.1320   40.5140 C.3     0  non0        0.0238
      2  C2        24.2270   26.4510   40.3530 C.3     0  non0        0.0330
      3  C3        22.7690   26.0350   40.4720 C.3     0  non0        0.1741
      4  N1        22.7310   24.6910   39.9220 N.pl3   0  non0       -0.2802
      5  C12       24.0730   24.1430   39.7810 C.3     0  non0        0.0932
      6  C13       21.5720   23.9240   39.5390 C.ar    0  non0        0.1634
      7  N2        20.5540   24.4790   38.9800 N.ar    0  non0       -0.2240
      8  C14       19.5960   23.5140   38.7410 C.ar    0  non0        0.0897
      9  C15       18.3760   23.7310   38.1690 C.ar    0  non0        0.0183
     10  C21       19.9360   22.2350   39.1260 C.ar    0  non0        0.0572
     11  C16       17.4810   22.6640   37.9770 C.ar    0  non0        0.0020
     12  C20       18.0020   25.0250   37.7660 C.ar    0  non0        0.0020
     13  C17       16.2360   22.8860   37.3780 C.ar    0  non0        0.0067
     14  C18       15.8700   24.1710   36.9720 C.ar    0  non0        0.0346
     15  C19       16.7580   25.2350   37.1700 C.ar    0  non0        0.0067
     16 Br         14.1580   24.4880   36.1470 Br      0  non0       -0.0490
     17  S1        21.5060   22.2470   39.8110 S.2     0  non0       -0.0510
     18  C4        22.3360   26.0330   41.9000 C.2     0  non0        0.3355
     19  O1        22.9580   26.6830   42.7280 O.2     0  non0       -0.2483
     20  O2        21.2540   25.3100   42.2790 O.3     0  non0       -0.4424
     21  C5        20.1000   26.1340   42.2440 C.3     0  non0        0.2351
     22  C6        18.9000   25.2960   41.9870 C.ar    0  non0        0.0213
     23  C7        18.9060   23.9310   42.3180 C.ar    0  non0       -0.0007
     24  C8        17.7790   23.1390   42.0650 C.ar    0  non0       -0.0002
     25  C9        16.6400   23.7030   41.4850 C.ar    0  non0       -0.0000
     26  C10       16.6320   25.0640   41.1640 C.ar    0  non0       -0.0002
     27  C11       17.7490   25.8610   41.4130 C.ar    0  non0       -0.0007
@<TRIPOS>BOND
     1    16    14    1
     2    14    15   ar
     3    14    13   ar
     4    15    12   ar
     5    13    11   ar
     6    12     9   ar
     7    11     9   ar
     8     9     8    1
     9     8     7   ar
    10     8    10   ar
    11     7     6   ar
    12    10    17   ar
    13     6    17   ar
    14     6     4    1
    15     5     4    1
    16     5     1    1
    17     4     3    1
    18     2     3    1
    19     2     1    1
    20     3    18    1
    21    26    27   ar
    22    26    25   ar
    23    27    22   ar
    24    25    24   ar
    25    18    20    1
    26    18    19    2
    27    22    21    1
    28    22    23   ar
    29    24    23   ar
    30    21    20    1
@<TRIPOS>MOLECULE
24785630_Intermediate
 23 24 0 0 0
SMALL
GASTEIGER

@<TRIPOS>ATOM
      1  C1        23.0530   26.2940   36.4130 C.3     0  non0        0.0521
      2  C2        22.9010   26.8050   35.0370 C.ar    0  non0        0.0597
      3  C3        23.5000   26.1230   33.9930 C.ar    0  non0        0.0127
      4  C4        23.3360   26.6190   32.7020 C.ar    0  non0        0.0078
      5  C7        22.5960   27.7940   32.5300 C.ar    0  non0        0.0188
      6  C8        22.4240   28.3480   31.2400 C.3     0  non0        0.1374
      7  N1        22.2520   28.9010   29.9490 N.3     0  non0       -0.1262
      8  C9        22.0270   28.4190   33.6380 C.ar    0  non0        0.1039
      9  N2        22.1740   27.9300   34.8800 N.ar    0  non0       -0.2437
     10  C5        23.9210   25.9350   31.5320 C.3     0  non0        0.1685
     11  O1        25.0550   25.1880   31.9380 O.3     0  non0       -0.3463
     12  C6        26.0400   25.2300   30.9170 C.3     0  non0        0.1746
     13  S1        21.0820   29.8880   33.4690 S.3     0  non0       -0.0833
     14  C10       22.2900   30.9540   34.3200 C.3     0  non0        0.1732
     15  C11       23.2960   31.4630   33.3260 C.2     0  non0        0.3330
     16  O2        22.9520   31.7160   32.1810 O.2     0  non0       -0.2487
     17  O3        24.5870   31.6430   33.7000 O.3     0  non0       -0.4235
     18  C12       25.2560   30.4440   33.6280 C.ar    0  non0        0.1485
     19  C13       25.5270   29.7100   34.7970 C.ar    0  non0        0.0376
     20  C14       26.2200   28.4970   34.7230 C.ar    0  non0        0.0031
     21  C15       26.6460   28.0030   33.4880 C.ar    0  non0        0.0002
     22  C16       26.3720   28.7310   32.3240 C.ar    0  non0        0.0031
     23  C17       25.6790   29.9400   32.3860 C.ar    0  non0        0.0376
@<TRIPOS>BOND
     1     7     6    1
     2    12    11    1
     3     6     5    1
     4    10    11    1
     5    10     4    1
     6    16    15    2
     7    22    23   ar
     8    22    21   ar
     9    23    18   ar
    10     5     4   ar
    11     5     8   ar
    12     4     3   ar
    13    15    17    1
    14    15    14    1
    15    13     8    1
    16    13    14    1
    17    21    20   ar
    18    18    17    1
    19    18    19   ar
    20     8     9   ar
    21     3     2   ar
    22    20    19   ar
    23     9     2   ar
    24     2     1    1
@<TRIPOS>MOLECULE
24785630_Intermediate
 23 24 0 0 0
SMALL
GASTEIGER

@<TRIPOS>ATOM
      1  C1        17.9260   30.9730   31.7700 C.3     0  non0        0.0521
      2  C2        17.4880   29.8760   30.8850 C.ar    0  non0        0.0597
      3  C3        16.3060   30.0090   30.1790 C.ar    0  non0        0.0127
      4  C4        15.9180   28.9650   29.3420 C.ar    0  non0        0.0078
      5  C7        16.7290   27.8260   29.2790 C.ar    0  non0        0.0188
      6  C8        16.3620   26.7310   28.4630 C.3     0  non0        0.1374
      7  N1        15.9940   25.6370   27.6460 N.3     0  non0       -0.1262
      8  C9        17.9050   27.7750   30.0260 C.ar    0  non0        0.1039
      9  N2        18.2840   28.7900   30.8200 N.ar    0  non0       -0.2437
     10  C5        14.6850   29.0390   28.5360 C.3     0  non0        0.1685
     11  O1        13.7620   29.9160   29.1600 O.3     0  non0       -0.3463
     12  C6        12.4430   29.4280   28.9720 C.3     0  non0        0.1746
     13  S1        18.9590   26.3730   29.9700 S.3     0  non0       -0.0833
     14  C10       18.6300   25.8570   31.6870 C.3     0  non0        0.1732
     15  C11       17.4180   24.9690   31.7190 C.2     0  non0        0.3330
     16  O2        17.1950   24.2040   30.7930 O.2     0  non0       -0.2487
     17  O3        16.5710   25.0170   32.7770 O.3     0  non0       -0.4235
     18  C12       15.6920   26.0610   32.6130 C.ar    0  non0        0.1485
     19  C13       15.8730   27.2620   33.3230 C.ar    0  non0        0.0376
     20  C14       14.9700   28.3180   33.1650 C.ar    0  non0        0.0031
     21  C15       13.8810   28.1900   32.2990 C.ar    0  non0        0.0002
     22  C16       13.7030   26.9980   31.5890 C.ar    0  non0        0.0031
     23  C17       14.6000   25.9390   31.7370 C.ar    0  non0        0.0376
@<TRIPOS>BOND
     1     7     6    1
     2     6     5    1
     3    10    11    1
     4    10     4    1
     5    12    11    1
     6     5     4   ar
     7     5     8   ar
     8     4     3   ar
     9    13     8    1
    10    13    14    1
    11     8     9   ar
    12     3     2   ar
    13    16    15    2
    14     9     2   ar
    15     2     1    1
    16    22    23   ar
    17    22    21   ar
    18    14    15    1
    19    15    17    1
    20    23    18   ar
    21    21    20   ar
    22    18    17    1
    23    18    19   ar
    24    20    19   ar
@<TRIPOS>MOLECULE
24785630_Intermediate
 23 24 0 0 0
SMALL
GASTEIGER

@<TRIPOS>ATOM
      1  C1        13.8750   30.7820   32.7710 C.3     0  non0        0.0521
      2  C2        15.1910   30.2520   33.1820 C.ar    0  non0        0.0597
      3  C3        15.9920   29.6320   32.2400 C.ar    0  non0        0.0127
      4  C4        17.2340   29.1490   32.6490 C.ar    0  non0        0.0078
      5  C7        17.5940   29.2920   33.9930 C.ar    0  non0        0.0188
      6  C8        18.8340   28.7940   34.4580 C.3     0  non0        0.1374
      7  N1        20.0730   28.2960   34.9220 N.3     0  non0       -0.1262
      8  C9        16.7240   29.9300   34.8760 C.ar    0  non0        0.1039
      9  N2        15.5350   30.4090   34.4760 N.ar    0  non0       -0.2437
     10  C5        18.1590   28.4970   31.7010 C.3     0  non0        0.1685
     11  O1        17.4200   27.9330   30.6300 O.3     0  non0       -0.3463
     12  C6        18.0310   26.7190   30.2220 C.3     0  non0        0.1746
     13  S1        17.1380   30.1430   36.5680 S.3     0  non0       -0.0833
     14  C10       15.8670   28.9950   37.1890 C.3     0  non0        0.1732
     15  C11       16.4200   27.5970   37.2080 C.2     0  non0        0.3330
     16  O2        17.5990   27.4090   37.4690 O.2     0  non0       -0.2487
     17  O3        15.6110   26.5450   36.9370 O.3     0  non0       -0.4235
     18  C12       15.5040   26.3870   35.5750 C.ar    0  non0        0.1485
     19  C13       14.3530   26.8250   34.8970 C.ar    0  non0        0.0376
     20  C14       14.2410   26.6520   33.5130 C.ar    0  non0        0.0031
     21  C15       15.2730   26.0460   32.7930 C.ar    0  non0        0.0002
     22  C16       16.4210   25.6140   33.4670 C.ar    0  non0        0.0031
     23  C17       16.5440   25.7850   34.8460 C.ar    0  non0        0.0376
@<TRIPOS>BOND
     1    12    11    1
     2    11    10    1
     3    10     4    1
     4     3     4   ar
     5     3     2   ar
     6     4     5   ar
     7     1     2    1
     8    21    22   ar
     9    21    20   ar
    10     2     9   ar
    11    22    23   ar
    12    20    19   ar
    13     5     6    1
    14     5     8   ar
    15     6     7    1
    16     9     8   ar
    17    23    18   ar
    18     8    13    1
    19    19    18   ar
    20    18    17    1
    21    13    14    1
    22    17    15    1
    23    14    15    1
    24    15    16    2
@<TRIPOS>MOLECULE
57265530_Intermediate
 29 32 0 0 0
SMALL
GASTEIGER

@<TRIPOS>ATOM
      1  N1        24.8750   28.9220   35.8160 N.ar    0  non0       -0.2955
      2  C3        24.4920   30.2590   35.7750 C.ar    0  non0        0.2608
      3  C4        23.0250   30.2350   35.5990 C.ar    0  non0        0.0576
      4  C5        22.1060   31.2560   35.4810 C.ar    0  non0        0.0048
      5  C6        20.7600   30.8950   35.3290 C.ar    0  non0        0.0002
      6  C7        20.3670   29.5360   35.3050 C.ar    0  non0        0.0014
      7  C8        21.3190   28.4840   35.4330 C.ar    0  non0        0.0202
      8  C9        21.1740   27.0670   35.4510 C.ar    0  non0        0.1223
      9  C10       22.3020   26.2150   35.5880 C.ar    0  non0        0.0214
     10  C11       23.5980   26.7390   35.7190 C.ar    0  non0        0.0186
     11  C12       23.7370   28.1100   35.7070 C.ar    0  non0        0.0627
     12  C13       22.6350   28.9190   35.5710 C.ar    0  non0        0.0218
     13  O5        25.1700   31.2610   35.8600 O.2     0  non0       -0.2670
     14  S1        19.5620   26.3780   35.3010 S.O2    0  non0        0.0633
     15  O3        19.6670   24.7210   35.2790 O.2     0  non0       -0.1528
     16  O4        18.8620   26.9070   33.8900 O.2     0  non0       -0.1528
     17  N2        18.6380   26.8540   36.5860 N.3     0  non0       -0.1550
     18  C14       18.7810   25.8500   37.6780 C.3     0  non0        0.0958
     19  C15       18.2230   24.4940   37.2660 C.3     0  non0        0.0198
     20  C16       16.7650   24.6120   36.8330 C.3     0  non0        0.0141
     21  C17       16.6060   25.6590   35.7370 C.3     0  non0        0.1167
     22  C18       17.2250   26.9950   36.1350 C.3     0  non0        0.1068
     23  C19       17.2770   25.1680   34.4970 C.2     0  non0        0.3179
     24  O1        17.3620   25.8950   33.5190 O.2     0  non0       -0.2501
     25  O2        17.7910   23.9150   34.4570 O.3     0  non0       -0.4485
     26  C20       17.2180   23.2010   33.3750 C.3     0  non0        0.2086
     27  C21       16.0340   22.4000   33.8690 C.3     0  non0        0.0513
     28  C2        26.1780   28.3560   35.9440 C.3     0  non0        0.1091
     29  C1        26.8430   28.3090   34.5860 C.3     0  non0        0.0266
@<TRIPOS>BOND
     1    26    27    1
     2    26    25    1
     3    24    23    2
     4    16    14    2
     5    25    23    1
     6    23    21    1
     7    29    28    1
     8    15    14    2
     9    14     8    1
    10    14    17    1
    11     6     5   ar
    12     6     7   ar
    13     5     4   ar
    14     7     8   ar
    15     7    12   ar
    16     8     9   ar
    17     4     3   ar
    18    12     3   ar
    19    12    11   ar
    20     9    10   ar
    21     3     2   ar
    22    11    10   ar
    23    11     1   ar
    24    21    22    1
    25    21    20    1
    26     2     1   ar
    27     2    13    2
    28     1    28    1
    29    22    17    1
    30    17    18    1
    31    20    19    1
    32    19    18    1
@<TRIPOS>MOLECULE
57265530_Intermediate
 29 32 0 0 0
SMALL
GASTEIGER

@<TRIPOS>ATOM
      1  N1        15.4470   23.4840   32.6970 N.ar    0  non0       -0.2955
      2  C3        16.0410   22.7890   31.6480 C.ar    0  non0        0.2608
      3  C4        17.4850   22.7750   31.9620 C.ar    0  non0        0.0576
      4  C5        18.5600   22.2430   31.2820 C.ar    0  non0        0.0048
      5  C6        19.8260   22.3960   31.8610 C.ar    0  non0        0.0002
      6  C7        19.9890   23.0650   33.0970 C.ar    0  non0        0.0014
      7  C8        18.8750   23.6090   33.8000 C.ar    0  non0        0.0202
      8  C9        18.7800   24.3000   35.0420 C.ar    0  non0        0.1223
      9  C10       17.5280   24.7550   35.5350 C.ar    0  non0        0.0214
     10  C11       16.3400   24.5310   34.8220 C.ar    0  non0        0.0186
     11  C12       16.4320   23.8560   33.6230 C.ar    0  non0        0.0627
     12  C13       17.6510   23.4260   33.1600 C.ar    0  non0        0.0218
     13  O5        15.5340   22.2850   30.6690 O.2     0  non0       -0.2670
     14  S1        20.2490   24.5880   35.9670 S.O2    0  non0        0.0633
     15  O3        19.8840   25.4660   37.3280 O.2     0  non0       -0.1528
     16  O4        21.3340   25.4350   35.0360 O.2     0  non0       -0.1528
     17  N2        20.9140   23.1410   36.4070 N.3     0  non0       -0.1550
     18  C14       20.3600   22.7410   37.7310 C.3     0  non0        0.0958
     19  C15       20.7700   23.7180   38.8260 C.3     0  non0        0.0198
     20  C16       22.2880   23.8520   38.8970 C.3     0  non0        0.0141
     21  C17       22.8650   24.2320   37.5380 C.3     0  non0        0.1167
     22  C18       22.3970   23.2840   36.4390 C.3     0  non0        0.1068
     23  C19       22.4300   25.6180   37.1980 C.2     0  non0        0.3179
     24  O1        22.6920   26.0890   36.1020 O.2     0  non0       -0.2501
     25  O2        21.7430   26.3530   38.1060 O.3     0  non0       -0.4485
     26  C20       22.4240   27.5740   38.3400 C.3     0  non0        0.2086
     27  C21       23.3230   27.4260   39.5470 C.3     0  non0        0.0513
     28  C2        14.0760   23.8200   32.9000 C.3     0  non0        0.1091
     29  C1        13.7460   25.0800   32.1280 C.3     0  non0        0.0266
@<TRIPOS>BOND
     1    13     2    2
     2     4     5   ar
     3     4     3   ar
     4     2     3   ar
     5     2     1   ar
     6     5     6   ar
     7     3    12   ar
     8    29    28    1
     9     1    28    1
    10     1    11   ar
    11     6     7   ar
    12    12    11   ar
    13    12     7   ar
    14    11    10   ar
    15     7     8   ar
    16    10     9   ar
    17    16    14    2
    18     8     9   ar
    19     8    14    1
    20    14    17    1
    21    14    15    2
    22    24    23    2
    23    17    22    1
    24    17    18    1
    25    22    21    1
    26    23    21    1
    27    23    25    1
    28    21    20    1
    29    18    19    1
    30    25    26    1
    31    26    27    1
    32    19    20    1
@<TRIPOS>MOLECULE
57265530_Intermediate
 29 32 0 0 0
SMALL
GASTEIGER

@<TRIPOS>ATOM
      1  N1        17.2640   22.9410   41.3360 N.ar    0  non0       -0.2955
      2  C3        17.2500   21.5730   41.0870 C.ar    0  non0        0.2608
      3  C4        16.7870   21.4400   39.6890 C.ar    0  non0        0.0576
      4  C5        16.5690   20.3270   38.9050 C.ar    0  non0        0.0048
      5  C6        16.1280   20.5430   37.5920 C.ar    0  non0        0.0002
      6  C7        15.9230   21.8520   37.0960 C.ar    0  non0        0.0014
      7  C8        16.1560   22.9990   37.9080 C.ar    0  non0        0.0202
      8  C9        16.0370   24.3930   37.6410 C.ar    0  non0        0.1223
      9  C10       16.3280   25.3600   38.6390 C.ar    0  non0        0.0214
     10  C11       16.7510   24.9770   39.9210 C.ar    0  non0        0.0186
     11  C12       16.8710   23.6280   40.1780 C.ar    0  non0        0.0627
     12  C13       16.5830   22.7060   39.2010 C.ar    0  non0        0.0218
     13  O5        17.5430   20.6510   41.8170 O.2     0  non0       -0.2670
     14  S1        15.5200   24.9080   36.0390 S.O2    0  non0        0.0633
     15  O3        15.3990   26.5640   36.0010 O.2     0  non0       -0.1528
     16  O4        14.0410   24.2360   35.6910 O.2     0  non0       -0.1528
     17  N2        16.6280   24.4110   34.9180 N.3     0  non0       -0.1550
     18  C14       17.6510   25.4810   34.7470 C.3     0  non0        0.0958
     19  C15       17.0410   26.7510   34.1690 C.3     0  non0        0.0198
     20  C16       16.3370   26.4660   32.8460 C.3     0  non0        0.0141
     21  C17       15.3090   25.3510   33.0060 C.3     0  non0        0.1167
     22  C18       15.9170   24.1070   33.6430 C.3     0  non0        0.1068
     23  C19       14.1950   25.8400   33.8690 C.2     0  non0        0.3179
     24  O1        13.3090   25.0750   34.2170 O.2     0  non0       -0.2501
     25  O2        14.1670   27.1350   34.2690 O.3     0  non0       -0.4485
     26  C20       12.9420   27.7270   33.8730 C.3     0  non0        0.2086
     27  C21       13.1260   28.4260   32.5440 C.3     0  non0        0.0513
     28  C2        17.6020   23.6410   42.5320 C.3     0  non0        0.1091
     29  C1        16.4060   23.6650   43.4580 C.3     0  non0        0.0266
@<TRIPOS>BOND
     1    27    26    1
     2    20    21    1
     3    20    19    1
     4    21    22    1
     5    21    23    1
     6    22    17    1
     7    23    24    2
     8    23    25    1
     9    26    25    1
    10    19    18    1
    11    18    17    1
    12    17    14    1
    13    16    14    2
    14    15    14    2
    15    14     8    1
    16     6     5   ar
    17     6     7   ar
    18     5     4   ar
    19     8     7   ar
    20     8     9   ar
    21     7    12   ar
    22     9    10   ar
    23     4     3   ar
    24    12     3   ar
    25    12    11   ar
    26     3     2   ar
    27    10    11   ar
    28    11     1   ar
    29     2     1   ar
    30     2    13    2
    31     1    28    1
    32    28    29    1
@<TRIPOS>MOLECULE
14738949_Intermediate
 28 29 0 0 0
SMALL
GASTEIGER

@<TRIPOS>ATOM
      1  C10       15.7480   28.9540   41.2100 C.3     0  non0        0.1807
      2  C9        15.5270   27.7370   40.3750 C.2     0  non0        0.2442
      3  N1        15.7760   27.7760   39.0300 N.am    0  non0       -0.2827
      4  H8        16.1110   28.6330   38.6110 H       0  non0        0.1549
      5  O4        15.1210   26.7070   40.8920 O.2     0  non0       -0.2732
      6  C7        15.5690   26.6480   38.2540 C.ar    0  non0        0.0504
      7  C6        14.3420   26.4810   37.6020 C.ar    0  non0        0.0147
      8  C5        14.1270   25.3430   36.8200 C.ar    0  non0        0.0014
      9  C4        15.1320   24.3790   36.6880 C.ar    0  non0        0.0029
     10  C3        16.3550   24.5620   37.3400 C.ar    0  non0        0.0359
     11  C8        16.5770   25.6910   38.1300 C.ar    0  non0        0.0175
     12  C2        17.3940   23.5670   37.1880 C.2     0  non0        0.1735
     13  C1        18.4810   23.7700   36.1870 C.3     0  non0        0.0773
     14  O5        17.3820   22.5610   37.8810 O.2     0  non0       -0.2913
     15  N2        16.9020   28.7480   42.0660 N.3     0  non0       -0.1447
     16  C11       16.8180   29.6350   43.2120 C.3     0  non0        0.1155
     17  S1        18.2810   29.0750   41.2170 S.O2    0  non0        0.0638
     18  O2        19.3960   29.7870   42.2200 O.2     0  non0       -0.1528
     19  O3        17.9290   30.1030   39.9610 O.2     0  non0       -0.1528
     20  C12       18.9480   27.5650   40.5730 C.ar    0  non0        0.1221
     21  C13       18.8200   26.3680   41.2960 C.ar    0  non0        0.0230
     22  C14       19.3550   25.1780   40.7930 C.ar    0  non0        0.0379
     23  C15       20.0210   25.1710   39.5640 C.ar    0  non0        0.1348
     24  C16       20.1440   26.3620   38.8400 C.ar    0  non0        0.0134
     25  C17       20.8450   26.3490   37.5410 C.3     0  non0        0.0342
     26  C18       19.6090   27.5540   39.3320 C.ar    0  non0        0.0186
     27  O1        20.5510   24.0130   39.0690 O.3     0  non0       -0.4717
     28  C19       20.2490   22.9400   39.9470 C.3     0  non0        0.2525
@<TRIPOS>BOND
     1    13    12    1
     2     9     8   ar
     3     9    10   ar
     4     8     7   ar
     5    12    10    1
     6    12    14    2
     7    10    11   ar
     8    25    24    1
     9     7     6   ar
    10    11     6   ar
    11     6     3    1
    12     4     3    1
    13    24    26   ar
    14    24    23   ar
    15     3     2   am
    16    27    23    1
    17    27    28    1
    18    26    20   ar
    19    23    22   ar
    20    19    17    2
    21     2     5    2
    22     2     1    1
    23    20    17    1
    24    20    21   ar
    25    22    21   ar
    26     1    15    1
    27    17    15    1
    28    17    18    2
    29    15    16    1
@<TRIPOS>MOLECULE
14738949_Intermediate
 28 29 0 0 0
SMALL
GASTEIGER

@<TRIPOS>ATOM
      1  C10       13.3400   27.7280   36.3710 C.3     0  non0        0.1807
      2  C9        13.0420   26.4290   35.7000 C.2     0  non0        0.2442
      3  N1        14.0320   25.7640   35.0270 N.am    0  non0       -0.2827
      4  H8        14.9610   26.1590   34.9920 H       0  non0        0.1549
      5  O4        11.9150   25.9610   35.7490 O.2     0  non0       -0.2732
      6  C7        13.7550   24.5590   34.4030 C.ar    0  non0        0.0504
      7  C6        13.4030   24.5550   33.0480 C.ar    0  non0        0.0147
      8  C5        13.1210   23.3430   32.4140 C.ar    0  non0        0.0014
      9  C4        13.1920   22.1410   33.1270 C.ar    0  non0        0.0029
     10  C3        13.5510   22.1600   34.4770 C.ar    0  non0        0.0359
     11  C8        13.8270   23.3660   35.1230 C.ar    0  non0        0.0175
     12  C2        13.6350   20.9130   35.2050 C.2     0  non0        0.1735
     13  C1        14.9570   20.2450   35.3910 C.3     0  non0        0.0773
     14  O5        12.6250   20.4060   35.6680 O.2     0  non0       -0.2913
     15  N2        13.3140   27.5450   37.8100 N.3     0  non0       -0.1447
     16  C11       13.0660   28.8210   38.4550 C.3     0  non0        0.1155
     17  S1        14.7690   26.9460   38.3150 S.O2    0  non0        0.0638
     18  O2        15.1540   27.5960   39.7930 O.2     0  non0       -0.1528
     19  O3        15.9440   27.3420   37.2110 O.2     0  non0       -0.1528
     20  C12       14.6630   25.1830   38.4550 C.ar    0  non0        0.1221
     21  C13       13.4620   24.5740   38.8540 C.ar    0  non0        0.0230
     22  C14       13.3800   23.1830   38.9750 C.ar    0  non0        0.0379
     23  C15       14.4960   22.3870   38.6980 C.ar    0  non0        0.1348
     24  C16       15.6920   22.9930   38.2950 C.ar    0  non0        0.0134
     25  C17       16.8660   22.1490   38.0010 C.3     0  non0        0.0342
     26  C18       15.7800   24.3800   38.1680 C.ar    0  non0        0.0186
     27  O1        14.4260   21.0290   38.8190 O.3     0  non0       -0.4717
     28  C19       13.1070   20.6520   39.1800 C.3     0  non0        0.2525
@<TRIPOS>BOND
     1     8     7   ar
     2     8     9   ar
     3     7     6   ar
     4     9    10   ar
     5     6     3    1
     6     6    11   ar
     7    10    11   ar
     8    10    12    1
     9     4     3    1
    10     3     2   am
    11    12    13    1
    12    12    14    2
    13     2     5    2
    14     2     1    1
    15     1    15    1
    16    19    17    2
    17    15    17    1
    18    15    16    1
    19    25    24    1
    20    26    24   ar
    21    26    20   ar
    22    24    23   ar
    23    17    20    1
    24    17    18    2
    25    20    21   ar
    26    23    27    1
    27    23    22   ar
    28    27    28    1
    29    21    22   ar
@<TRIPOS>MOLECULE
14738949_Intermediate
 28 29 0 0 0
SMALL
GASTEIGER

@<TRIPOS>ATOM
      1  C10       25.8850   23.7020   38.8590 C.3     0  non0        0.1807
      2  C9        24.8670   23.0290   38.0000 C.2     0  non0        0.2442
      3  N1        23.6930   23.6660   37.7030 N.am    0  non0       -0.2827
      4  H8        23.5250   24.5930   38.0690 H       0  non0        0.1549
      5  O4        25.0820   21.9080   37.5640 O.2     0  non0       -0.2732
      6  C7        22.7470   23.0410   36.9070 C.ar    0  non0        0.0504
      7  C6        21.7180   22.3120   37.5120 C.ar    0  non0        0.0147
      8  C5        20.7620   21.6770   36.7140 C.ar    0  non0        0.0014
      9  C4        20.8340   21.7730   35.3200 C.ar    0  non0        0.0029
     10  C3        21.8630   22.5100   34.7300 C.ar    0  non0        0.0359
     11  C8        22.8280   23.1410   35.5180 C.ar    0  non0        0.0175
     12  C2        21.9230   22.6150   33.2890 C.2     0  non0        0.1735
     13  C1        21.3660   23.8180   32.6040 C.3     0  non0        0.0773
     14  O5        22.4310   21.7180   32.6310 O.2     0  non0       -0.2913
     15  N2        27.0320   24.0710   38.0490 N.3     0  non0       -0.1447
     16  C11       28.1970   24.2170   38.9020 C.3     0  non0        0.1155
     17  S1        26.7260   25.5020   37.2830 S.O2    0  non0        0.0638
     18  O2        28.1230   26.3960   37.2000 O.2     0  non0       -0.1528
     19  O3        25.5750   26.3490   38.1280 O.2     0  non0       -0.1528
     20  C12       26.1350   25.1780   35.6450 C.ar    0  non0        0.1221
     21  C13       26.6100   24.0690   34.9250 C.ar    0  non0        0.0230
     22  C14       26.1520   23.8190   33.6280 C.ar    0  non0        0.0379
     23  C15       25.2150   24.6720   33.0370 C.ar    0  non0        0.1348
     24  C16       24.7370   25.7740   33.7550 C.ar    0  non0        0.0134
     25  C17       23.7450   26.6700   33.1290 C.3     0  non0        0.0342
     26  C18       25.1860   26.0290   35.0520 C.ar    0  non0        0.0186
     27  O1        24.7660   24.4370   31.7690 O.3     0  non0       -0.4717
     28  C19       25.3430   23.2380   31.2760 C.3     0  non0        0.2525
@<TRIPOS>BOND
     1    28    27    1
     2    27    23    1
     3    13    12    1
     4    14    12    2
     5    23    22   ar
     6    23    24   ar
     7    25    24    1
     8    12    10    1
     9    22    21   ar
    10    24    26   ar
    11    10     9   ar
    12    10    11   ar
    13    21    20   ar
    14    26    20   ar
    15     9     8   ar
    16    11     6   ar
    17    20    17    1
    18     8     7   ar
    19     6     7   ar
    20     6     3    1
    21    18    17    2
    22    17    15    1
    23    17    19    2
    24     5     2    2
    25     3     2   am
    26     3     4    1
    27     2     1    1
    28    15     1    1
    29    15    16    1
@<TRIPOS>MOLECULE
24390232_Intermediate
 27 29 0 0 0
SMALL
GASTEIGER

@<TRIPOS>ATOM
      1  C10       17.3970   28.3920   38.6240 C.2     0  non0        0.2708
      2  N1        16.8110   27.1570   38.5710 N.am    0  non0       -0.2653
      3  O3        16.7910   29.3360   39.1110 O.2     0  non0       -0.2708
      4  C11       15.4830   26.9690   39.0870 C.3     0  non0        0.1215
      5  C12       14.5840   26.5290   37.9890 C.ar    0  non0        0.0083
      6  C13       14.2490   27.4110   36.9490 C.ar    0  non0       -0.0018
      7  C14       13.3910   26.9990   35.9210 C.ar    0  non0       -0.0002
      8  C15       12.8670   25.7050   35.9210 C.ar    0  non0        0.0008
      9  C16       13.2050   24.8230   36.9550 C.ar    0  non0        0.0111
     10  C17       14.0590   25.2250   37.9820 C.ar    0  non0        0.0553
     11 Cl         14.4910   24.1170   39.2760 Cl      0  non0       -0.0825
     12  C18       17.5210   26.0480   38.0000 C.3     0  non0        0.1586
     13  C19       17.9340   25.1320   39.0640 C.ar    0  non0        0.1430
     14  C20       18.5640   23.9870   38.8270 C.ar    0  non0        0.0379
     15  C21       18.7680   23.4170   40.1050 C.ar    0  non0        0.0435
     16  C22       18.2390   24.3020   41.0280 C.ar    0  non0        0.1792
     17  O2        17.7090   25.3790   40.3670 O.2     0  non0       -0.4530
     18  C9        18.7760   28.5880   38.0880 C.3     0  non0        0.2896
     19  O1        19.6370   29.0010   39.1350 O.3     0  non0       -0.4656
     20  C6        20.3230   27.9210   39.6150 C.ar    0  non0        0.1393
     21  C5        20.3360   27.6410   40.9840 C.ar    0  non0        0.0366
     22  C4        21.0390   26.5320   41.4690 C.ar    0  non0       -0.0012
     23  C3        21.7240   25.7040   40.5770 C.ar    0  non0       -0.0220
     24  C8        21.7240   25.9800   39.2090 C.ar    0  non0       -0.0012
     25  C7        21.0190   27.0870   38.7340 C.ar    0  non0        0.0366
     26  C2        22.4510   24.5300   41.0950 C.3     0  non0        0.0264
     27  C1        21.7700   24.0280   42.3500 C.3     0  non0        0.0050
@<TRIPOS>BOND
     1     7     8   ar
     2     7     6   ar
     3     8     9   ar
     4     6     5   ar
     5     9    10   ar
     6    10     5   ar
     7    10    11    1
     8     5     4    1
     9    12     2    1
    10    12    13    1
    11    18     1    1
    12    18    19    1
    13     2     1   am
    14     2     4    1
    15     1     3    2
    16    25    24   ar
    17    25    20   ar
    18    14    13   ar
    19    14    15   ar
    20    13    17   ar
    21    19    20    1
    22    24    23   ar
    23    20    21   ar
    24    15    16   ar
    25    17    16   ar
    26    23    26    1
    27    23    22   ar
    28    21    22   ar
    29    26    27    1
@<TRIPOS>MOLECULE
24390232_Intermediate
 27 29 0 0 0
SMALL
GASTEIGER

@<TRIPOS>ATOM
      1  C10       20.4180   25.7690   37.4510 C.2     0  non0        0.2708
      2  N1        19.6340   24.6480   37.4390 N.am    0  non0       -0.2653
      3  O3        20.1120   26.7220   38.1530 O.2     0  non0       -0.2708
      4  C11       18.4500   24.5910   38.2520 C.3     0  non0        0.1215
      5  C12       18.5600   23.4580   39.2060 C.ar    0  non0        0.0083
      6  C13       19.4880   23.5050   40.2600 C.ar    0  non0       -0.0018
      7  C14       19.6000   22.4300   41.1510 C.ar    0  non0       -0.0002
      8  C15       18.7850   21.3070   41.0030 C.ar    0  non0        0.0008
      9  C16       17.8550   21.2620   39.9570 C.ar    0  non0        0.0111
     10  C17       17.7370   22.3280   39.0650 C.ar    0  non0        0.0553
     11 Cl         16.5650   22.2760   37.7550 Cl      0  non0       -0.0825
     12  C18       19.9930   23.5290   36.6150 C.3     0  non0        0.1586
     13  C19       19.0450   23.4160   35.5050 C.ar    0  non0        0.1430
     14  C20       19.0840   22.4250   34.6210 C.ar    0  non0        0.0379
     15  C21       18.0190   22.6960   33.7300 C.ar    0  non0        0.0435
     16  C22       17.4070   23.8540   34.1770 C.ar    0  non0        0.1792
     17  O2        18.0610   24.3070   35.2920 O.2     0  non0       -0.4530
     18  C9        21.6470   25.8300   36.6070 C.3     0  non0        0.2896
     19  O1        21.5310   26.8930   35.6770 O.3     0  non0       -0.4656
     20  C6        21.0470   26.4130   34.4920 C.ar    0  non0        0.1393
     21  C5        21.6800   25.3470   33.8480 C.ar    0  non0        0.0366
     22  C4        21.1780   24.8580   32.6370 C.ar    0  non0       -0.0012
     23  C3        20.0380   25.4400   32.0770 C.ar    0  non0       -0.0220
     24  C8        19.4030   26.5100   32.7080 C.ar    0  non0       -0.0012
     25  C7        19.9090   26.9890   33.9170 C.ar    0  non0        0.0366
     26  C2        19.5080   24.9100   30.8060 C.3     0  non0        0.0264
     27  C1        19.9740   23.4830   30.6200 C.3     0  non0        0.0050
@<TRIPOS>BOND
     1    27    26    1
     2    26    23    1
     3    23    22   ar
     4    23    24   ar
     5    22    21   ar
     6    24    25   ar
     7    15    16   ar
     8    15    14   ar
     9    21    20   ar
    10    25    20   ar
    11    16    17   ar
    12    20    19    1
    13    14    13   ar
    14    17    13   ar
    15    13    12    1
    16    19    18    1
    17    18     1    1
    18    12     2    1
    19     2     1   am
    20     2     4    1
    21     1     3    2
    22    11    10    1
    23     4     5    1
    24    10     5   ar
    25    10     9   ar
    26     5     6   ar
    27     9     8   ar
    28     6     7   ar
    29     8     7   ar
@<TRIPOS>MOLECULE
24390232_Intermediate
 27 29 0 0 0
SMALL
GASTEIGER

@<TRIPOS>ATOM
      1  C10       18.7330   26.6370   37.6500 C.2     0  non0        0.2708
      2  N1        18.0380   25.4870   37.3910 N.am    0  non0       -0.2653
      3  O3        18.4550   27.3110   38.6320 O.2     0  non0       -0.2708
      4  C11       16.9820   25.0710   38.2730 C.3     0  non0        0.1215
      5  C12       17.3030   23.7330   38.8310 C.ar    0  non0        0.0083
      6  C13       18.3580   23.5790   39.7450 C.ar    0  non0       -0.0018
      7  C14       18.6680   22.3140   40.2610 C.ar    0  non0       -0.0002
      8  C15       17.9240   21.1970   39.8750 C.ar    0  non0        0.0008
      9  C16       16.8680   21.3510   38.9690 C.ar    0  non0        0.0111
     10  C17       16.5530   22.6070   38.4500 C.ar    0  non0        0.0553
     11 Cl         15.2220   22.8020   37.3190 Cl      0  non0       -0.0825
     12  C18       18.3630   24.6950   36.2390 C.3     0  non0        0.1586
     13  C19       17.2860   24.8010   35.2540 C.ar    0  non0        0.1430
     14  C20       17.2780   24.1130   34.1170 C.ar    0  non0        0.0379
     15  C21       16.0860   24.5080   33.4660 C.ar    0  non0        0.0435
     16  C22       15.4560   25.4160   34.2990 C.ar    0  non0        0.1792
     17  O2        16.2200   25.6020   35.4220 O.2     0  non0       -0.4530
     18  C9        19.8290   27.0690   36.7350 C.3     0  non0        0.2896
     19  O1        19.5100   28.3340   36.1800 O.3     0  non0       -0.4656
     20  C6        18.9080   28.1620   34.9650 C.ar    0  non0        0.1393
     21  C5        19.5250   27.3990   33.9700 C.ar    0  non0        0.0366
     22  C4        18.9020   27.2240   32.7300 C.ar    0  non0       -0.0012
     23  C3        17.6570   27.8120   32.4930 C.ar    0  non0       -0.0220
     24  C8        17.0360   28.5820   33.4780 C.ar    0  non0       -0.0012
     25  C7        17.6640   28.7500   34.7120 C.ar    0  non0        0.0366
     26  C2        17.0000   27.6120   31.1870 C.3     0  non0        0.0264
     27  C1        17.5400   26.3570   30.5380 C.3     0  non0        0.0050
@<TRIPOS>BOND
     1    27    26    1
     2    26    23    1
     3    23    22   ar
     4    23    24   ar
     5    22    21   ar
     6    15    14   ar
     7    15    16   ar
     8    24    25   ar
     9    21    20   ar
    10    14    13   ar
    11    16    17   ar
    12    25    20   ar
    13    20    19    1
    14    13    17   ar
    15    13    12    1
    16    19    18    1
    17    12     2    1
    18    18     1    1
    19    11    10    1
    20     2     1   am
    21     2     4    1
    22     1     3    2
    23     4     5    1
    24    10     5   ar
    25    10     9   ar
    26     5     6   ar
    27     9     8   ar
    28     6     7   ar
    29     8     7   ar
@<TRIPOS>MOLECULE
24389665_Intermediate
 27 31 0 0 0
SMALL
GASTEIGER

@<TRIPOS>ATOM
      1  C8        18.5600   30.1900   27.9600 C.ar    0  non0        0.1835
      2  N1        19.4820   30.7000   28.7440 N.ar    0  non0       -0.2058
      3  C9        20.5250   29.9520   28.4920 C.ar    0  non0        0.1717
      4  C10       21.8130   29.9580   28.9790 C.ar    0  non0        0.0926
      5  C11       22.5240   30.7130   29.8930 C.ar    0  non0        0.1267
      6  N2        23.7840   30.2840   29.9950 N.ar    0  non0       -0.1620
      7  N3        23.8890   29.2210   29.1240 N.ar    0  non0       -0.2111
      8  C18       22.6680   28.9950   28.4740 C.ar    0  non0        0.1700
      9  N4        22.3650   28.0310   27.5330 N.ar    0  non0       -0.2046
     10  C19       21.1280   28.0600   27.0950 C.ar    0  non0        0.2029
     11  N5        20.2110   29.0050   27.5620 N.ar    0  non0       -0.1900
     12  N6        18.9310   29.1070   27.1700 N.ar    0  non0       -0.1428
     13  C12       25.0880   28.4510   28.9120 C.ar    0  non0        0.0958
     14  C13       25.3340   27.2980   29.6770 C.ar    0  non0        0.0315
     15  C14       26.5050   26.5580   29.4790 C.ar    0  non0        0.0592
     16  C15       27.4370   26.9580   28.5160 C.ar    0  non0        0.0124
     17 Cl         26.8020   25.1220   30.4460 Cl      0  non0       -0.0822
     18  C16       27.1870   28.1020   27.7510 C.ar    0  non0        0.0138
     19  C17       26.0220   28.8460   27.9390 C.ar    0  non0        0.0754
     20 Cl         25.7050   30.2780   26.9720 Cl      0  non0       -0.0807
     21  C5        17.2930   30.6970   27.9210 C.ar    0  non0        0.0375
     22  C4        16.4000   30.2970   26.9240 C.ar    0  non0        0.0028
     23  C3        15.1020   30.8190   26.8910 C.ar    0  non0       -0.0042
     24  C2        14.7030   31.7400   27.8630 C.ar    0  non0       -0.0218
     25  C1        13.3290   32.2760   27.8280 C.3     0  non0        0.0310
     26  C7        15.5900   32.1530   28.8580 C.ar    0  non0       -0.0042
     27  C6        16.8820   31.6250   28.8840 C.ar    0  non0        0.0028
@<TRIPOS>BOND
     1    23    22   ar
     2    23    24   ar
     3    22    21   ar
     4    20    19    1
     5    10     9   ar
     6    10    11   ar
     7    12    11   ar
     8    12     1   ar
     9     9     8   ar
    10    11     3   ar
    11    18    19   ar
    12    18    16   ar
    13    25    24    1
    14    24    26   ar
    15    21     1    1
    16    21    27   ar
    17    19    13   ar
    18     1     2   ar
    19     8     4   ar
    20     8     7   ar
    21     3     2   ar
    22     3     4   ar
    23    16    15   ar
    24    26    27   ar
    25    13     7    1
    26    13    14   ar
    27     4     5   ar
    28     7     6   ar
    29    15    14   ar
    30    15    17    1
    31     5     6   ar
@<TRIPOS>MOLECULE
24389665_Intermediate
 27 31 0 0 0
SMALL
GASTEIGER

@<TRIPOS>ATOM
      1  C8        13.5700   28.6450   33.8520 C.ar    0  non0        0.1835
      2  N1        12.8720   27.5330   33.8140 N.ar    0  non0       -0.2058
      3  C9        13.1400   26.9820   34.9690 C.ar    0  non0        0.1717
      4  C10       12.7290   25.8050   35.5540 C.ar    0  non0        0.0926
      5  C11       11.9030   24.7560   35.1990 C.ar    0  non0        0.1267
      6  N2        11.8470   23.8380   36.1660 N.ar    0  non0       -0.1620
      7  N3        12.6610   24.3070   37.1740 N.ar    0  non0       -0.2111
      8  C18       13.2270   25.5390   36.8180 C.ar    0  non0        0.1700
      9  N4        14.0900   26.3280   37.5510 N.ar    0  non0       -0.2046
     10  C19       14.4570   27.4400   36.9570 C.ar    0  non0        0.2029
     11  N5        13.9940   27.7720   35.6810 N.ar    0  non0       -0.1900
     12  N6        14.3160   28.8840   35.0020 N.ar    0  non0       -0.1428
     13  C12       12.8960   23.6240   38.4210 C.ar    0  non0        0.0958
     14  C13       12.0740   23.8750   39.5330 C.ar    0  non0        0.0315
     15  C14       12.3100   23.2200   40.7470 C.ar    0  non0        0.0592
     16  C15       13.3640   22.3080   40.8610 C.ar    0  non0        0.0124
     17 Cl         11.2780   23.5490   42.1290 Cl      0  non0       -0.0822
     18  C16       14.1770   22.0540   39.7510 C.ar    0  non0        0.0138
     19  C17       13.9480   22.7010   38.5360 C.ar    0  non0        0.0754
     20 Cl         14.9650   22.3740   37.1410 Cl      0  non0       -0.0807
     21  C5        13.5660   29.5300   32.8120 C.ar    0  non0        0.0375
     22  C4        14.0430   30.8310   32.9860 C.ar    0  non0        0.0028
     23  C3        14.0370   31.7320   31.9150 C.ar    0  non0       -0.0042
     24  C2        13.5560   31.3210   30.6690 C.ar    0  non0       -0.0218
     25  C1        13.5660   32.2730   29.5420 C.3     0  non0        0.0310
     26  C7        13.0700   30.0260   30.4870 C.ar    0  non0       -0.0042
     27  C6        13.0810   29.1340   31.5610 C.ar    0  non0        0.0028
@<TRIPOS>BOND
     1    25    24    1
     2    26    24   ar
     3    26    27   ar
     4    24    23   ar
     5    27    21   ar
     6    23    22   ar
     7    21    22   ar
     8    21     1    1
     9     2     1   ar
    10     2     3   ar
    11     1    12   ar
    12     3     4   ar
    13     3    11   ar
    14    12    11   ar
    15     5     4   ar
    16     5     6   ar
    17     4     8   ar
    18    11    10   ar
    19     6     7   ar
    20     8     7   ar
    21     8     9   ar
    22    10     9   ar
    23    20    19    1
    24     7    13    1
    25    13    19   ar
    26    13    14   ar
    27    19    18   ar
    28    14    15   ar
    29    18    16   ar
    30    15    16   ar
    31    15    17    1
@<TRIPOS>MOLECULE
24389665_Intermediate
 27 31 0 0 0
SMALL
GASTEIGER

@<TRIPOS>ATOM
      1  C8        20.1990   25.0280   33.6880 C.ar    0  non0        0.1835
      2  N1        19.2680   24.7870   32.7940 N.ar    0  non0       -0.2058
      3  C9        18.5060   25.8470   32.8740 C.ar    0  non0        0.1717
      4  C10       17.3610   26.2210   32.2080 C.ar    0  non0        0.0926
      5  C11       16.5640   25.6730   31.2210 C.ar    0  non0        0.1267
      6  N2        15.5390   26.4770   30.9270 N.ar    0  non0       -0.1620
      7  N3        15.6790   27.5750   31.7480 N.ar    0  non0       -0.2111
      8  C18       16.8120   27.4410   32.5620 C.ar    0  non0        0.1700
      9  N4        17.2930   28.3210   33.5110 N.ar    0  non0       -0.2046
     10  C19       18.3850   27.9260   34.1230 C.ar    0  non0        0.2029
     11  N5        18.9930   26.7060   33.8160 N.ar    0  non0       -0.1900
     12  N6        20.1070   26.2260   34.3880 N.ar    0  non0       -0.1428
     13  C12       14.7820   28.7030   31.7660 C.ar    0  non0        0.0958
     14  C13       15.0180   29.8100   30.9320 C.ar    0  non0        0.0315
     15  C14       14.1540   30.9100   30.9600 C.ar    0  non0        0.0592
     16  C15       13.0460   30.9140   31.8130 C.ar    0  non0        0.0124
     17 Cl         14.4650   32.2880   29.9160 Cl      0  non0       -0.0822
     18  C16       12.8090   29.8090   32.6370 C.ar    0  non0        0.0138
     19  C17       13.6640   28.7060   32.6160 C.ar    0  non0        0.0754
     20 Cl         13.3590   27.3150   33.6450 Cl      0  non0       -0.0807
     21  C5        21.2130   24.1440   33.9210 C.ar    0  non0        0.0375
     22  C4        21.9970   24.2520   35.0720 C.ar    0  non0        0.0028
     23  C3        23.0340   23.3410   35.3060 C.ar    0  non0       -0.0042
     24  C2        23.2780   22.3210   34.3840 C.ar    0  non0       -0.0218
     25  C1        24.3640   21.3570   34.6440 C.3     0  non0        0.0310
     26  C7        22.5060   22.2090   33.2260 C.ar    0  non0       -0.0042
     27  C6        21.4740   23.1210   33.0020 C.ar    0  non0        0.0028
@<TRIPOS>BOND
     1    17    15    1
     2     6     5   ar
     3     6     7   ar
     4    14    15   ar
     5    14    13   ar
     6    15    16   ar
     7     5     4   ar
     8     7    13    1
     9     7     8   ar
    10    13    19   ar
    11    16    18   ar
    12     4     8   ar
    13     4     3   ar
    14     8     9   ar
    15    19    18   ar
    16    19    20    1
    17     2     3   ar
    18     2     1   ar
    19     3    11   ar
    20    27    26   ar
    21    27    21   ar
    22    26    24   ar
    23     9    10   ar
    24     1    21    1
    25     1    12   ar
    26    11    10   ar
    27    11    12   ar
    28    21    22   ar
    29    24    25    1
    30    24    23   ar
    31    22    23   ar
@<TRIPOS>MOLECULE
17474558_Intermediate
 25 27 0 0 0
SMALL
GASTEIGER

@<TRIPOS>ATOM
      1  C2        17.8420   29.1190   41.9760 C.ar    0  non0        0.0314
      2  C3        17.1590   28.6200   40.8860 C.ar    0  non0        0.0801
      3  N1        17.4740   29.2830   39.6920 N.ar    0  non0       -0.3010
      4  C12       18.4240   30.2690   39.9540 C.ar    0  non0        0.1569
      5  N2        18.9520   31.0770   39.0070 N.pl3   0  non0       -0.2446
      6  S1        18.9060   30.3980   41.6440 S.2     0  non0       -0.0560
      7  H10       18.6120   32.0190   39.1410 H       0  non0        0.1720
      8  C4        16.9170   29.0040   38.3930 C.3     0  non0        0.1769
      9  C5        15.7400   29.8910   38.1560 C.2     0  non0        0.1958
     10  O1        15.6640   30.5420   37.1260 O.2     0  non0       -0.2893
     11  C6        14.6810   29.9790   39.1530 C.ar    0  non0        0.0368
     12  C7        14.4910   31.1640   39.8810 C.ar    0  non0        0.0052
     13  C8        13.4810   31.2420   40.8470 C.ar    0  non0        0.0297
     14  C9        12.6530   30.1440   41.0920 C.ar    0  non0        0.1401
     15  C10       12.8400   28.9640   40.3610 C.ar    0  non0        0.0297
     16  F1        11.6620   30.2140   42.0380 F       0  non0       -0.2042
     17  C11       13.8430   28.8760   39.3950 C.ar    0  non0        0.0052
     18  C1        17.6640   28.5790   43.3550 C.3     0  non0        0.0608
     19  C13       16.2520   28.7160   43.7590 C.ar    0  non0       -0.0164
     20  C14       15.4830   27.5690   43.9620 C.ar    0  non0       -0.0039
     21  C15       14.1410   27.6920   44.3340 C.ar    0  non0        0.0006
     22  C16       13.5710   28.9570   44.5060 C.ar    0  non0        0.0114
     23  C17       14.3560   30.0970   44.3050 C.ar    0  non0        0.0574
     24  C18       15.6960   29.9850   43.9360 C.ar    0  non0        0.0075
     25 Cl         13.6340   31.6850   44.5230 Cl      0  non0       -0.0823
@<TRIPOS>BOND
     1    10     9    2
     2     9     8    1
     3     9    11    1
     4     8     3    1
     5     5     7    1
     6     5     4    1
     7    11    17   ar
     8    11    12   ar
     9    17    15   ar
    10     3     4   ar
    11     3     2   ar
    12    12    13   ar
    13     4     6   ar
    14    15    14   ar
    15    13    14   ar
    16     2     1   ar
    17    14    16    1
    18     6     1   ar
    19     1    18    1
    20    18    19    1
    21    19    24   ar
    22    19    20   ar
    23    24    23   ar
    24    20    21   ar
    25    23    22   ar
    26    23    25    1
    27    21    22   ar
@<TRIPOS>MOLECULE
17474558_Intermediate
 25 27 0 0 0
SMALL
GASTEIGER

@<TRIPOS>ATOM
      1  C2        19.6940   24.5360   31.8750 C.ar    0  non0        0.0314
      2  C3        20.7980   25.0730   31.2450 C.ar    0  non0        0.0801
      3  N1        21.0200   24.5280   29.9730 N.ar    0  non0       -0.3010
      4  C12       20.0270   23.5900   29.6970 C.ar    0  non0        0.1569
      5  N2        19.9470   22.8940   28.5410 N.pl3   0  non0       -0.2446
      6  S1        18.8510   23.3600   30.9900 S.2     0  non0       -0.0560
      7  H10       20.1700   21.9250   28.7140 H       0  non0        0.1720
      8  C4        22.0970   24.8710   29.0790 C.3     0  non0        0.1769
      9  C5        23.2360   23.9300   29.2880 C.2     0  non0        0.1958
     10  O1        23.7390   23.3580   28.3340 O.2     0  non0       -0.2893
     11  C6        23.7500   23.6950   30.6310 C.ar    0  non0        0.0368
     12  C7        23.5730   22.4470   31.2480 C.ar    0  non0        0.0052
     13  C8        24.0570   22.2270   32.5440 C.ar    0  non0        0.0297
     14  C9        24.7200   23.2460   33.2300 C.ar    0  non0        0.1401
     15  C10       24.9010   24.4890   32.6120 C.ar    0  non0        0.0297
     16  F1        25.1950   23.0370   34.5010 F       0  non0       -0.2042
     17  C11       24.4250   24.7180   31.3200 C.ar    0  non0        0.0052
     18  C1        19.2640   24.9530   33.2410 C.3     0  non0        0.0608
     19  C13       20.3530   24.6920   34.2020 C.ar    0  non0       -0.0164
     20  C14       20.9840   25.7670   34.8310 C.ar    0  non0       -0.0039
     21  C15       22.0250   25.5260   35.7340 C.ar    0  non0        0.0006
     22  C16       22.4300   24.2170   36.0080 C.ar    0  non0        0.0114
     23  C17       21.7840   23.1500   35.3750 C.ar    0  non0        0.0574
     24  C18       20.7440   23.3790   34.4750 C.ar    0  non0        0.0075
     25 Cl         22.2980   21.5060   35.7260 Cl      0  non0       -0.0823
@<TRIPOS>BOND
     1    10     9    2
     2     5     7    1
     3     5     4    1
     4     8     9    1
     5     8     3    1
     6     9    11    1
     7     4     3   ar
     8     4     6   ar
     9     3     2   ar
    10    11    12   ar
    11    11    17   ar
    12     6     1   ar
    13     2     1   ar
    14    12    13   ar
    15    17    15   ar
    16     1    18    1
    17    13    14   ar
    18    15    14   ar
    19    14    16    1
    20    18    19    1
    21    19    24   ar
    22    19    20   ar
    23    24    23   ar
    24    20    21   ar
    25    23    25    1
    26    23    22   ar
    27    21    22   ar
@<TRIPOS>MOLECULE
17474558_Intermediate
 25 27 0 0 0
SMALL
GASTEIGER

@<TRIPOS>ATOM
      1  C2        25.8750   25.4540   33.4690 C.ar    0  non0        0.0314
      2  C3        24.5090   25.5160   33.6600 C.ar    0  non0        0.0801
      3  N1        24.1530   25.7210   35.0000 N.ar    0  non0       -0.3010
      4  C12       25.3100   25.8220   35.7710 C.ar    0  non0        0.1569
      5  N2        25.3110   26.0390   37.1050 N.pl3   0  non0       -0.2446
      6  S1        26.8140   25.6450   34.8680 S.2     0  non0       -0.0560
      7  H10       25.6210   25.2030   37.5820 H       0  non0        0.1720
      8  C4        22.8120   25.8140   35.5180 C.3     0  non0        0.1769
      9  C5        22.3600   24.4680   35.9760 C.2     0  non0        0.1958
     10  O1        21.8890   24.3300   37.0930 O.2     0  non0       -0.2893
     11  C6        22.4810   23.3180   35.0890 C.ar    0  non0        0.0368
     12  C7        23.3930   22.2920   35.3790 C.ar    0  non0        0.0052
     13  C8        23.5160   21.1940   34.5200 C.ar    0  non0        0.0297
     14  C9        22.7300   21.1100   33.3680 C.ar    0  non0        0.1401
     15  C10       21.8170   22.1310   33.0810 C.ar    0  non0        0.0297
     16  F1        22.8470   20.0370   32.5200 F       0  non0       -0.2042
     17  C11       21.6850   23.2290   33.9330 C.ar    0  non0        0.0052
     18  C1        26.4920   25.2340   32.1290 C.3     0  non0        0.0608
     19  C13       26.0210   23.9500   31.5750 C.ar    0  non0       -0.0164
     20  C14       25.2190   23.9500   30.4320 C.ar    0  non0       -0.0039
     21  C15       24.7600   22.7370   29.9090 C.ar    0  non0        0.0006
     22  C16       25.1050   21.5300   30.5230 C.ar    0  non0        0.0114
     23  C17       25.9140   21.5460   31.6640 C.ar    0  non0        0.0574
     24  C18       26.3790   22.7490   32.1930 C.ar    0  non0        0.0075
     25 Cl         26.3450   20.0240   32.4310 Cl      0  non0       -0.0823
@<TRIPOS>BOND
     1    21    20   ar
     2    21    22   ar
     3    20    19   ar
     4    22    23   ar
     5    19    18    1
     6    19    24   ar
     7    23    24   ar
     8    23    25    1
     9    18     1    1
    10    16    14    1
    11    15    14   ar
    12    15    17   ar
    13    14    13   ar
    14     1     2   ar
    15     1     6   ar
    16     2     3   ar
    17    17    11   ar
    18    13    12   ar
    19     6     4   ar
    20     3     8    1
    21     3     4   ar
    22    11    12   ar
    23    11     9    1
    24     8     9    1
    25     4     5    1
    26     9    10    2
    27     5     7    1
@<TRIPOS>MOLECULE
103074475_Intermediate
 29 31 0 0 0
SMALL
GASTEIGER

@<TRIPOS>ATOM
      1  C8        17.7590   26.5790   36.8240 C.ar    0  non0        0.1391
      2  C9        18.5260   27.0880   37.8580 C.ar    0  non0        0.0786
      3  C10       19.0830   26.1940   38.7610 C.ar    0  non0        0.0934
      4  C11       19.8420   26.8580   39.7750 C.ar    0  non0        0.0268
      5  C12       19.8890   28.2320   39.5960 C.ar    0  non0        0.0371
      6  S1        18.9190   28.7050   38.2610 S.2     0  non0       -0.0821
      7  N3        18.8930   24.8570   38.6600 N.ar    0  non0       -0.2132
      8  C13       18.1580   24.4600   37.6240 C.ar    0  non0        0.2181
      9  N4        17.9580   23.0470   37.4250 N.pl3   0  non0       -0.3006
     10  N5        17.5760   25.2570   36.7270 N.ar    0  non0       -0.1985
     11  H12       18.3750   22.3920   38.0690 H       0  non0        0.1497
     12  N2        17.1600   27.4730   35.8510 N.pl3   0  non0       -0.3139
     13  H9        16.5600   28.2230   36.1620 H       0  non0        0.1485
     14  C7        17.4260   27.2860   34.4280 C.3     0  non0        0.1154
     15  C6        18.8460   27.5730   34.1510 C.ar    0  non0       -0.0025
     16  C5        19.3680   28.8510   34.3740 C.ar    0  non0       -0.0013
     17  C4        20.7180   29.1160   34.1110 C.ar    0  non0        0.0144
     18  C3        21.5420   28.0960   33.6310 C.ar    0  non0        0.0503
     19  C18       21.0290   26.8180   33.3970 C.ar    0  non0        0.0144
     20  C17       19.6830   26.5630   33.6630 C.ar    0  non0       -0.0013
     21  N1        22.8770   28.3620   33.3850 N.am    0  non0       -0.2839
     22  C2        23.8060   28.1800   34.3750 C.2     0  non0        0.2266
     23  C1        25.2460   28.4680   34.1100 C.3     0  non0        0.0949
     24  O2        23.4540   27.7820   35.4760 O.2     0  non0       -0.2748
     25  H4        23.1770   28.6920   32.4780 H       0  non0        0.1549
     26  C14       17.1570   22.5760   36.2990 C.3     0  non0        0.1218
     27  C15       18.0650   21.9110   35.2760 C.3     0  non0        0.1634
     28  O1        18.6090   22.8970   34.4150 O.3     0  non0       -0.3493
     29  C16       17.5820   23.4320   33.5970 C.3     0  non0        0.1742
@<TRIPOS>BOND
     1    25    21    1
     2    21    18    1
     3    21    22   am
     4    19    18   ar
     5    19    20   ar
     6    29    28    1
     7    18    17   ar
     8    20    15   ar
     9    23    22    1
    10    17    16   ar
    11    15    16   ar
    12    15    14    1
    13    22    24    2
    14    28    27    1
    15    14    12    1
    16    27    26    1
    17    12    13    1
    18    12     1    1
    19    26     9    1
    20    10     1   ar
    21    10     8   ar
    22     1     2   ar
    23     9     8    1
    24     9    11    1
    25     8     7   ar
    26     2     6   ar
    27     2     3   ar
    28     6     5   ar
    29     7     3   ar
    30     3     4   ar
    31     5     4   ar
@<TRIPOS>MOLECULE
103074475_Intermediate
 29 31 0 0 0
SMALL
GASTEIGER

@<TRIPOS>ATOM
      1  C8        18.6550   28.9170   32.0980 C.ar    0  non0        0.1391
      2  C9        19.9810   28.5720   31.8980 C.ar    0  non0        0.0786
      3  C10       20.9080   28.9510   32.8580 C.ar    0  non0        0.0934
      4  C11       22.2330   28.5350   32.5190 C.ar    0  non0        0.0268
      5  C12       22.2810   27.8090   31.3400 C.ar    0  non0        0.0371
      6  S1        20.7310   27.7370   30.6050 S.2     0  non0       -0.0821
      7  N3        20.5530   29.6440   33.9670 N.ar    0  non0       -0.2132
      8  C13       19.2550   29.9130   34.0820 C.ar    0  non0        0.2181
      9  N4        18.7980   30.6030   35.2630 N.pl3   0  non0       -0.3006
     10  N5        18.3090   29.6000   33.1960 N.ar    0  non0       -0.1985
     11  H12       19.4660   30.8650   35.9720 H       0  non0        0.1497
     12  N2        17.6470   28.5380   31.1250 N.pl3   0  non0       -0.3139
     13  H9        17.7710   28.7860   30.1540 H       0  non0        0.1485
     14  C7        16.4610   27.8030   31.5520 C.3     0  non0        0.1154
     15  C6        16.8500   26.4410   31.9660 C.ar    0  non0       -0.0025
     16  C5        17.4490   25.5660   31.0550 C.ar    0  non0       -0.0013
     17  C4        17.8180   24.2760   31.4550 C.ar    0  non0        0.0144
     18  C3        17.5890   23.8690   32.7710 C.ar    0  non0        0.0503
     19  C18       16.9840   24.7320   33.6880 C.ar    0  non0        0.0144
     20  C17       16.6220   26.0160   33.2800 C.ar    0  non0       -0.0013
     21  N1        17.9670   22.5970   33.1630 N.am    0  non0       -0.2839
     22  C2        19.2150   22.3830   33.6840 C.2     0  non0        0.2266
     23  C1        19.6230   21.0100   34.1060 C.3     0  non0        0.0949
     24  O2        19.9950   23.3160   33.8030 O.2     0  non0       -0.2748
     25  H4        17.3290   21.8190   33.0680 H       0  non0        0.1549
     26  C14       17.3810   30.9140   35.4220 C.3     0  non0        0.1218
     27  C15       16.7910   30.0390   36.5160 C.3     0  non0        0.1634
     28  O1        16.3610   28.8090   35.9580 O.3     0  non0       -0.3493
     29  C16       15.2660   29.0390   35.0890 C.3     0  non0        0.1742
@<TRIPOS>BOND
     1    13    12    1
     2     6     5   ar
     3     6     2   ar
     4    16    17   ar
     5    16    15   ar
     6    12    14    1
     7    12     1    1
     8     5     4   ar
     9    17    18   ar
    10    14    15    1
    11     2     1   ar
    12     2     3   ar
    13    15    20   ar
    14     1    10   ar
    15     4     3   ar
    16    18    21    1
    17    18    19   ar
    18     3     7   ar
    19    25    21    1
    20    21    22   am
    21    10     8   ar
    22    20    19   ar
    23    22    24    2
    24    22    23    1
    25     7     8   ar
    26     8     9    1
    27    29    28    1
    28     9    26    1
    29     9    11    1
    30    26    27    1
    31    28    27    1
@<TRIPOS>MOLECULE
103074475_Intermediate
 29 31 0 0 0
SMALL
GASTEIGER

@<TRIPOS>ATOM
      1  C8        19.8820   26.5760   34.1670 C.ar    0  non0        0.1391
      2  C9        18.8250   27.2760   33.6100 C.ar    0  non0        0.0786
      3  C10       18.6710   27.2400   32.2310 C.ar    0  non0        0.0934
      4  C11       17.5470   28.0080   31.7960 C.ar    0  non0        0.0268
      5  C12       16.8420   28.5700   32.8490 C.ar    0  non0        0.0371
      6  S1        17.6210   28.2450   34.3450 S.2     0  non0       -0.0821
      7  N3        19.5200   26.5520   31.4300 N.ar    0  non0       -0.2132
      8  C13       20.4930   25.8940   32.0570 C.ar    0  non0        0.2181
      9  N4        21.4020   25.0990   31.2710 N.pl3   0  non0       -0.3006
     10  N5        20.7160   25.8960   33.3720 N.ar    0  non0       -0.1985
     11  H12       21.2830   25.0560   30.2700 H       0  non0        0.1497
     12  N2        20.0820   26.5780   35.6040 N.pl3   0  non0       -0.3139
     13  H9        20.1430   27.4550   36.1000 H       0  non0        0.1485
     14  C7        20.1920   25.3140   36.3270 C.3     0  non0        0.1154
     15  C6        18.8870   24.6260   36.3160 C.ar    0  non0       -0.0025
     16  C5        17.7650   25.2220   36.8990 C.ar    0  non0       -0.0013
     17  C4        16.5300   24.5640   36.8830 C.ar    0  non0        0.0144
     18  C3        16.4220   23.3110   36.2760 C.ar    0  non0        0.0503
     19  C18       17.5380   22.7020   35.6980 C.ar    0  non0        0.0144
     20  C17       18.7650   23.3670   35.7180 C.ar    0  non0       -0.0013
     21  N1        15.1950   22.6720   36.2540 N.am    0  non0       -0.2839
     22  C2        14.3400   22.8670   35.2020 C.2     0  non0        0.2266
     23  C1        13.0160   22.1780   35.1780 C.3     0  non0        0.0949
     24  O2        14.6620   23.6050   34.2830 O.2     0  non0       -0.2748
     25  H4        14.9200   22.0600   37.0090 H       0  non0        0.1549
     26  C14       22.4800   24.3660   31.9260 C.3     0  non0        0.1218
     27  C15       22.1840   22.8750   31.8720 C.3     0  non0        0.1634
     28  O1        21.3850   22.5110   32.9840 O.3     0  non0       -0.3493
     29  C16       22.1370   22.6570   34.1770 C.3     0  non0        0.1742
@<TRIPOS>BOND
     1    11     9    1
     2     9    26    1
     3     9     8    1
     4     7     8   ar
     5     7     3   ar
     6     4     3   ar
     7     4     5   ar
     8    27    26    1
     9    27    28    1
    10     8    10   ar
    11     3     2   ar
    12     5     6   ar
    13    28    29    1
    14    10     1   ar
    15     2     1   ar
    16     2     6   ar
    17     1    12    1
    18    24    22    2
    19    23    22    1
    20    22    21   am
    21    12    13    1
    22    12    14    1
    23    19    20   ar
    24    19    18   ar
    25    20    15   ar
    26    21    18    1
    27    21    25    1
    28    18    17   ar
    29    15    14    1
    30    15    16   ar
    31    17    16   ar
@<TRIPOS>MOLECULE
17506356_Intermediate
 35 37 0 0 0
SMALL
GASTEIGER

@<TRIPOS>ATOM
      1  N3        14.3780   25.6620   35.4700 N.3     0  non0       -0.1418
      2  C8        13.8410   26.0630   34.1820 C.3     0  non0        0.1810
      3  C7        14.9270   26.0320   33.1600 C.2     0  non0        0.2442
      4  N2        16.0760   26.7500   33.3600 N.am    0  non0       -0.2827
      5  H7        16.1800   27.2970   34.2020 H       0  non0        0.1549
      6  O4        14.7900   25.3680   32.1440 O.2     0  non0       -0.2732
      7  C5        17.0830   26.7230   32.4090 C.ar    0  non0        0.0519
      8  C4        17.0660   27.6590   31.3680 C.ar    0  non0        0.0148
      9  C3        18.0780   27.6350   30.4060 C.ar    0  non0        0.0028
     10  C2        19.1020   26.6840   30.4830 C.ar    0  non0        0.0195
     11  C1        19.1080   25.7600   31.5310 C.ar    0  non0        0.0875
     12  C6        18.0980   25.7700   32.4940 C.ar    0  non0        0.0341
     13  N1        20.1720   24.7920   31.6120 N.4     0  non0       -0.2111
     14  O5        19.9870   23.9680   32.7910 O.3     0  non0       -0.0829
     15  H2        21.0560   25.2760   31.6700 H       0  non0        0.2034
     16  O1        20.1540   23.9540   30.4300 O.3     0  non0       -0.2823
     17  H1        20.8980   24.1790   29.8660 H       0  non0        0.2447
     18  C9        14.3550   24.2140   35.5730 C.3     0  non0        0.1223
     19  C10       15.6110   23.7430   36.2120 C.ar    0  non0       -0.0084
     20  C11       16.8570   24.0750   35.6560 C.ar    0  non0       -0.0032
     21  C12       18.0380   23.6190   36.2510 C.ar    0  non0       -0.0003
     22  C13       17.9870   22.8360   37.4060 C.ar    0  non0       -0.0003
     23  C14       16.7460   22.5090   37.9630 C.ar    0  non0       -0.0045
     24  C15       15.5600   22.9590   37.3770 C.ar    0  non0       -0.0244
     25  C16       14.2530   22.6200   37.9700 C.3     0  non0        0.0307
     26  S1        13.4570   26.3160   36.6770 S.O2    0  non0        0.0640
     27  O2        12.0920   25.3960   36.8950 O.2     0  non0       -0.1528
     28  O3        13.0220   27.8640   36.2650 O.2     0  non0       -0.1528
     29  C17       14.3940   26.3470   38.1800 C.ar    0  non0        0.1223
     30  C18       15.7550   26.6950   38.1600 C.ar    0  non0        0.0208
     31  C19       16.4970   26.7110   39.3450 C.ar    0  non0        0.0128
     32  C20       15.8900   26.3790   40.5590 C.ar    0  non0        0.0578
     33  C21       14.5320   26.0370   40.5810 C.ar    0  non0        0.0128
     34 Cl         16.8160   26.3880   42.0540 Cl      0  non0       -0.0822
     35  C22       13.7820   26.0240   39.4030 C.ar    0  non0        0.0208
@<TRIPOS>BOND
     1    17    16    1
     2     9    10   ar
     3     9     8   ar
     4    16    13    1
     5    10    11   ar
     6     8     7   ar
     7    11    13    1
     8    11    12   ar
     9    13    15    1
    10    13    14    1
    11     6     3    2
    12     7    12   ar
    13     7     4    1
    14     3     4   am
    15     3     2    1
    16     4     5    1
    17     2     1    1
    18     1    18    1
    19     1    26    1
    20    18    19    1
    21    20    19   ar
    22    20    21   ar
    23    19    24   ar
    24    21    22   ar
    25    28    26    2
    26    26    27    2
    27    26    29    1
    28    24    23   ar
    29    24    25    1
    30    22    23   ar
    31    30    29   ar
    32    30    31   ar
    33    29    35   ar
    34    31    32   ar
    35    35    33   ar
    36    32    33   ar
    37    32    34    1
@<TRIPOS>MOLECULE
17506356_Intermediate
 35 37 0 0 0
SMALL
GASTEIGER

@<TRIPOS>ATOM
      1  N3        17.8370   29.2930   35.1440 N.3     0  non0       -0.1418
      2  C8        16.9110   30.3260   34.7190 C.3     0  non0        0.1810
      3  C7        15.8040   29.7090   33.9330 C.2     0  non0        0.2442
      4  N2        16.0880   28.9440   32.8340 N.am    0  non0       -0.2827
      5  H7        17.0510   28.8020   32.5630 H       0  non0        0.1549
      6  O4        14.6430   29.8870   34.2700 O.2     0  non0       -0.2732
      7  C5        15.0590   28.3720   32.1030 C.ar    0  non0        0.0519
      8  C4        14.4830   29.0950   31.0520 C.ar    0  non0        0.0148
      9  C3        13.4440   28.5240   30.3140 C.ar    0  non0        0.0028
     10  C2        12.9850   27.2380   30.6200 C.ar    0  non0        0.0195
     11  C1        13.5750   26.5260   31.6680 C.ar    0  non0        0.0875
     12  C6        14.6080   27.0900   32.4180 C.ar    0  non0        0.0341
     13  N1        13.1070   25.1980   31.9700 N.4     0  non0       -0.2111
     14  O5        13.9260   24.6240   33.0200 O.3     0  non0       -0.0829
     15  H2        13.1700   24.6280   31.1380 H       0  non0        0.2034
     16  O1        11.7280   25.2600   32.4120 O.3     0  non0       -0.2823
     17  H1        11.5310   26.1460   32.7240 H       0  non0        0.2447
     18  C9        17.3680   28.7060   36.3860 C.3     0  non0        0.1223
     19  C10       17.5630   27.2340   36.3420 C.ar    0  non0       -0.0084
     20  C11       16.9710   26.4700   35.3230 C.ar    0  non0       -0.0032
     21  C12       17.1460   25.0820   35.2910 C.ar    0  non0       -0.0003
     22  C13       17.9150   24.4460   36.2680 C.ar    0  non0       -0.0003
     23  C14       18.5090   25.2070   37.2810 C.ar    0  non0       -0.0045
     24  C15       18.3410   26.5940   37.3220 C.ar    0  non0       -0.0244
     25  C16       18.9740   27.3960   38.3850 C.3     0  non0        0.0307
     26  S1        19.3320   29.9580   35.3780 S.O2    0  non0        0.0640
     27  O2        19.3980   30.6610   36.8810 O.2     0  non0       -0.1528
     28  O3        19.6160   31.1080   34.2150 O.2     0  non0       -0.1528
     29  C17       20.5640   28.6900   35.2660 C.ar    0  non0        0.1223
     30  C18       20.4450   27.6690   34.3080 C.ar    0  non0        0.0208
     31  C19       21.4120   26.6620   34.2250 C.ar    0  non0        0.0128
     32  C20       22.5050   26.6640   35.0960 C.ar    0  non0        0.0578
     33  C21       22.6280   27.6840   36.0470 C.ar    0  non0        0.0128
     34 Cl         23.7220   25.3990   35.0050 Cl      0  non0       -0.0822
     35  C22       21.6690   28.6960   36.1330 C.ar    0  non0        0.0208
@<TRIPOS>BOND
     1     9    10   ar
     2     9     8   ar
     3    10    11   ar
     4     8     7   ar
     5    15    13    1
     6    11    13    1
     7    11    12   ar
     8    13    16    1
     9    13    14    1
    10     7    12   ar
    11     7     4    1
    12    16    17    1
    13     5     4    1
    14     4     3   am
    15     3     6    2
    16     3     2    1
    17    28    26    2
    18    31    30   ar
    19    31    32   ar
    20    30    29   ar
    21     2     1    1
    22    34    32    1
    23    32    33   ar
    24     1    26    1
    25     1    18    1
    26    29    26    1
    27    29    35   ar
    28    21    20   ar
    29    21    22   ar
    30    20    19   ar
    31    26    27    2
    32    33    35   ar
    33    22    23   ar
    34    19    18    1
    35    19    24   ar
    36    23    24   ar
    37    24    25    1
@<TRIPOS>MOLECULE
17506356_Intermediate
 35 37 0 0 0
SMALL
GASTEIGER

@<TRIPOS>ATOM
      1  N3        20.0470   23.5080   30.4620 N.3     0  non0       -0.1418
      2  C8        21.4540   23.8640   30.4470 C.3     0  non0        0.1810
      3  C7        22.0880   23.4360   31.7270 C.2     0  non0        0.2442
      4  N2        21.6080   23.9050   32.9200 N.am    0  non0       -0.2827
      5  H7        20.8230   24.5400   32.9240 H       0  non0        0.1549
      6  O4        23.0380   22.6670   31.7100 O.2     0  non0       -0.2732
      7  C5        22.1990   23.5080   34.1080 C.ar    0  non0        0.0519
      8  C4        23.2690   24.2510   34.6220 C.ar    0  non0        0.0148
      9  C3        23.8690   23.8540   35.8190 C.ar    0  non0        0.0028
     10  C2        23.4040   22.7240   36.5010 C.ar    0  non0        0.0195
     11  C1        22.3300   21.9970   35.9790 C.ar    0  non0        0.0875
     12  C6        21.7280   22.3790   34.7800 C.ar    0  non0        0.0341
     13  N1        21.8480   20.8420   36.6920 N.4     0  non0       -0.2111
     14  O5        20.7150   20.2760   35.9860 O.3     0  non0       -0.0829
     15  H2        21.5650   21.1220   37.6210 H       0  non0        0.2034
     16  O1        22.9030   19.8530   36.7830 O.3     0  non0       -0.2823
     17  H1        23.5900   20.1710   37.3740 H       0  non0        0.2447
     18  C9        19.8940   22.1280   30.0370 C.3     0  non0        0.1223
     19  C10       18.8770   21.4590   30.8880 C.ar    0  non0       -0.0084
     20  C11       19.0150   21.4500   32.2850 C.ar    0  non0       -0.0032
     21  C12       18.0620   20.8080   33.0840 C.ar    0  non0       -0.0003
     22  C13       16.9630   20.1760   32.4980 C.ar    0  non0       -0.0003
     23  C14       16.8220   20.1890   31.1060 C.ar    0  non0       -0.0045
     24  C15       17.7680   20.8270   30.2990 C.ar    0  non0       -0.0244
     25  C16       17.6140   20.8470   28.8330 C.3     0  non0        0.0307
     26  S1        19.2190   24.4970   29.4280 S.O2    0  non0        0.0640
     27  O2        19.4220   23.9670   27.8680 O.2     0  non0       -0.1528
     28  O3        19.7950   26.0480   29.5650 O.2     0  non0       -0.1528
     29  C17       17.4970   24.4700   29.8410 C.ar    0  non0        0.1223
     30  C18       17.0890   24.5140   31.1850 C.ar    0  non0        0.0208
     31  C19       15.7300   24.4820   31.5120 C.ar    0  non0        0.0128
     32  C20       14.7660   24.4060   30.5030 C.ar    0  non0        0.0578
     33  C21       15.1710   24.3670   29.1630 C.ar    0  non0        0.0128
     34 Cl         13.0540   24.3580   30.9040 Cl      0  non0       -0.0822
     35  C22       16.5260   24.4040   28.8280 C.ar    0  non0        0.0208
@<TRIPOS>BOND
     1    27    26    2
     2    35    33   ar
     3    35    29   ar
     4    25    24    1
     5    33    32   ar
     6    26    28    2
     7    26    29    1
     8    26     1    1
     9    29    30   ar
    10    18     1    1
    11    18    19    1
    12    24    19   ar
    13    24    23   ar
    14     2     1    1
    15     2     3    1
    16    32    34    1
    17    32    31   ar
    18    19    20   ar
    19    23    22   ar
    20    30    31   ar
    21     6     3    2
    22     3     4   am
    23    20    21   ar
    24    22    21   ar
    25     4     5    1
    26     4     7    1
    27     7     8   ar
    28     7    12   ar
    29     8     9   ar
    30    12    11   ar
    31     9    10   ar
    32    11    10   ar
    33    11    13    1
    34    14    13    1
    35    13    16    1
    36    13    15    1
    37    16    17    1
@<TRIPOS>MOLECULE
24392427_Accepted
 25 27 0 0 0
SMALL
GASTEIGER

@<TRIPOS>ATOM
      1  C5        21.4850   28.2900   36.7530 C.ar    0  non0        0.1908
      2  N2        22.0480   29.4680   36.6590 N.ar    0  non0       -0.1264
      3  N3        21.0100   30.3840   36.5830 N.ar    0  non0       -0.1221
      4  C6        19.8790   29.7130   36.6350 C.ar    0  non0        0.1936
      5  N4        20.1660   28.3950   36.7480 N.ar    0  non0       -0.2871
      6  C7        19.2360   27.2980   36.8470 C.3     0  non0        0.1340
      7  C4        22.1670   27.1130   36.8430 C.ar    0  non0        0.1928
      8  C3        22.6730   26.2100   35.8400 C.ar    0  non0        0.1997
      9  N6        23.3050   25.2110   36.4690 N.ar    0  non0       -0.0329
     10  O1        23.1710   25.4640   37.8210 O.2     0  non0       -0.2402
     11  N5        22.4680   26.6280   38.0470 N.ar    0  non0       -0.0437
     12  N1        22.6150   26.2040   34.4000 N.am    0  non0       -0.2653
     13  C2        21.5080   25.7110   33.7610 C.2     0  non0        0.2278
     14  C1        21.4480   25.7050   32.2710 C.3     0  non0        0.0950
     15  O2        20.5700   25.2780   34.4140 O.2     0  non0       -0.2747
     16  H4        23.3670   26.5540   33.8240 H       0  non0        0.1564
     17  S1        18.1620   30.2300   36.5840 S.3     0  non0       -0.0708
     18  C8        18.1340   30.5100   34.7830 C.3     0  non0        0.0936
     19  C9        17.6320   29.2890   34.1020 C.ar    0  non0        0.0166
     20  C10       16.2570   28.9950   34.0940 C.ar    0  non0       -0.0012
     21  C11       15.7870   27.8390   33.4630 C.ar    0  non0       -0.0002
     22  C12       16.6790   26.9680   32.8320 C.ar    0  non0        0.0023
     23  C13       18.0470   27.2650   32.8330 C.ar    0  non0        0.0293
     24  C14       18.5260   28.4170   33.4570 C.ar    0  non0        0.1370
     25  F1        19.8660   28.7120   33.4530 F       0  non0       -0.2045
@<TRIPOS>BOND
     1    14    13    1
     2    22    23   ar
     3    22    21   ar
     4    23    24   ar
     5    25    24    1
     6    24    19   ar
     7    21    20   ar
     8    13    12   am
     9    13    15    2
    10    16    12    1
    11    20    19   ar
    12    19    18    1
    13    12     8    1
    14    18    17    1
    15     8     9   ar
    16     8     7   ar
    17     9    10   ar
    18     3     4   ar
    19     3     2   ar
    20    17     4    1
    21     4     5   ar
    22     2     1   ar
    23     5     1   ar
    24     5     6    1
    25     1     7    1
    26     7    11   ar
    27    10    11   ar
@<TRIPOS>MOLECULE
24392427_Accepted
 25 27 0 0 0
SMALL
GASTEIGER

@<TRIPOS>ATOM
      1  C5        19.5820   21.1730   41.1300 C.ar    0  non0        0.1908
      2  N2        20.4060   20.5000   41.8920 N.ar    0  non0       -0.1264
      3  N3        21.5390   21.2890   42.0220 N.ar    0  non0       -0.1221
      4  C6        21.3390   22.3930   41.3340 C.ar    0  non0        0.1936
      5  N4        20.1090   22.3340   40.7740 N.ar    0  non0       -0.2871
      6  C7        19.4710   23.3270   39.9470 C.3     0  non0        0.1340
      7  C4        18.3470   20.7360   40.7540 C.ar    0  non0        0.1928
      8  C3        17.9020   19.9430   39.6350 C.ar    0  non0        0.1997
      9  N6        16.5790   19.7690   39.7570 N.ar    0  non0       -0.0329
     10  O1        16.2050   20.4580   40.8950 O.2     0  non0       -0.2402
     11  N5        17.2910   21.0550   41.5010 N.ar    0  non0       -0.0437
     12  N1        18.5840   19.3590   38.5080 N.am    0  non0       -0.2653
     13  C2        18.8420   20.1170   37.3970 C.2     0  non0        0.2278
     14  C1        19.5480   19.5130   36.2300 C.3     0  non0        0.0950
     15  O2        18.4950   21.2890   37.3630 O.2     0  non0       -0.2747
     16  H4        18.8880   18.3960   38.4960 H       0  non0        0.1564
     17  S1        22.3590   23.8410   41.0500 S.3     0  non0       -0.0708
     18  C8        23.4320   23.0400   39.8140 C.3     0  non0        0.0936
     19  C9        22.9110   23.3210   38.4510 C.ar    0  non0        0.0166
     20  C10       23.1310   24.5740   37.8520 C.ar    0  non0       -0.0012
     21  C11       22.6290   24.8420   36.5740 C.ar    0  non0       -0.0002
     22  C12       21.9100   23.8650   35.8810 C.ar    0  non0        0.0023
     23  C13       21.6990   22.6150   36.4740 C.ar    0  non0        0.0293
     24  C14       22.1970   22.3370   37.7470 C.ar    0  non0        0.1370
     25  F1        21.9950   21.1100   38.3260 F       0  non0       -0.2045
@<TRIPOS>BOND
     1    22    23   ar
     2    22    21   ar
     3    14    13    1
     4    23    24   ar
     5    21    20   ar
     6    15    13    2
     7    13    12   am
     8    24    25    1
     9    24    19   ar
    10    20    19   ar
    11    19    18    1
    12    16    12    1
    13    12     8    1
    14     8     9   ar
    15     8     7   ar
    16     9    10   ar
    17    18    17    1
    18     6     5    1
    19     7     1    1
    20     7    11   ar
    21     5     1   ar
    22     5     4   ar
    23    10    11   ar
    24    17     4    1
    25     1     2   ar
    26     4     3   ar
    27     2     3   ar
@<TRIPOS>MOLECULE
24392427_Accepted
 25 27 0 0 0
SMALL
GASTEIGER

@<TRIPOS>ATOM
      1  C5        21.6840   23.4170   39.9560 C.ar    0  non0        0.1908
      2  N2        22.0110   22.2350   39.4990 N.ar    0  non0       -0.1264
      3  N3        22.9590   22.4540   38.5120 N.ar    0  non0       -0.1221
      4  C6        23.1550   23.7530   38.4260 C.ar    0  non0        0.1936
      5  N4        22.3620   24.3680   39.3350 N.ar    0  non0       -0.2871
      6  C7        22.2570   25.7820   39.5970 C.3     0  non0        0.1340
      7  C4        20.7670   23.6380   40.9410 C.ar    0  non0        0.1928
      8  C3        19.3400   23.8370   40.9060 C.ar    0  non0        0.1997
      9  N6        18.9150   23.9750   42.1680 N.ar    0  non0       -0.0329
     10  O1        20.0420   23.8980   42.9640 O.2     0  non0       -0.2402
     11  N5        21.1780   23.6960   42.2070 N.ar    0  non0       -0.0437
     12  N1        18.3810   23.9060   39.8320 N.am    0  non0       -0.2653
     13  C2        18.1930   25.0820   39.1570 C.2     0  non0        0.2278
     14  C1        17.2000   25.1550   38.0460 C.3     0  non0        0.0950
     15  O2        18.8400   26.0730   39.4660 O.2     0  non0       -0.2747
     16  H4        17.8280   23.1110   39.5460 H       0  non0        0.1564
     17  S1        24.2190   24.7490   37.3810 S.3     0  non0       -0.0708
     18  C8        23.1590   24.6200   35.9050 C.3     0  non0        0.0936
     19  C9        22.2500   25.7930   35.8450 C.ar    0  non0        0.0166
     20  C10       22.7300   27.0410   35.4100 C.ar    0  non0       -0.0012
     21  C11       21.8770   28.1490   35.3660 C.ar    0  non0       -0.0002
     22  C12       20.5390   28.0230   35.7500 C.ar    0  non0        0.0023
     23  C13       20.0590   26.7780   36.1750 C.ar    0  non0        0.0293
     24  C14       20.9020   25.6670   36.2200 C.ar    0  non0        0.1370
     25  F1        20.4300   24.4460   36.6310 F       0  non0       -0.2045
@<TRIPOS>BOND
     1    21    20   ar
     2    21    22   ar
     3    20    19   ar
     4    22    23   ar
     5    19    18    1
     6    19    24   ar
     7    18    17    1
     8    23    24   ar
     9    24    25    1
    10    17     4    1
    11    14    13    1
    12     4     3   ar
    13     4     5   ar
    14     3     2   ar
    15    13    15    2
    16    13    12   am
    17     5     6    1
    18     5     1   ar
    19     2     1   ar
    20    16    12    1
    21    12     8    1
    22     1     7    1
    23     8     7   ar
    24     8     9   ar
    25     7    11   ar
    26     9    10   ar
    27    11    10   ar
@<TRIPOS>MOLECULE
24343902_Intermediate
 24 26 0 0 0
SMALL
GASTEIGER

@<TRIPOS>ATOM
      1  C1        14.7540   26.9190   30.0800 C.ar    0  non0        0.1753
      2  C2        15.4130   27.7640   29.2760 C.ar    0  non0        0.0769
      3  C3        16.8660   27.8220   29.3250 C.ar    0  non0        0.0498
      4  C4        17.5940   28.6760   28.4990 C.ar    0  non0        0.0043
      5  C5        18.9890   28.7010   28.5810 C.ar    0  non0        0.0002
      6  C6        19.6640   27.8730   29.4860 C.ar    0  non0        0.0031
      7  C7        18.9490   27.0140   30.3220 C.ar    0  non0        0.0377
      8  C8        17.5520   27.0040   30.2240 C.ar    0  non0        0.1500
      9  O2        16.8320   26.1330   31.0760 O.2     0  non0       -0.4199
     10  C9        15.4520   26.0530   31.0430 C.ar    0  non0        0.3652
     11  O3        14.9760   25.2630   31.8280 O.2     0  non0       -0.2427
     12  N2        14.6350   28.5900   28.3870 N.pl3   0  non0       -0.2965
     13  H7        14.4470   28.2740   27.4470 H       0  non0        0.1537
     14  C10       14.1270   29.8710   28.8460 C.ar    0  non0        0.1322
     15  C11       14.7790   31.0650   28.4370 C.ar    0  non0        0.0344
     16  C12       14.2790   32.2880   28.8750 C.ar    0  non0        0.0045
     17  C13       13.1650   32.2880   29.7220 C.ar    0  non0        0.0208
     18  C14       12.5750   31.0770   30.0840 C.ar    0  non0        0.1003
     19  N3        13.0510   29.8990   29.6470 N.ar    0  non0       -0.2291
     20  N1        13.3170   26.8580   29.9950 N.4     0  non0       -0.2037
     21  O4        12.9140   25.5400   29.5450 O.3     0  non0       -0.0827
     22  H2        12.9930   27.5540   29.3380 H       0  non0        0.2037
     23  O1        12.7440   27.1190   31.3020 O.3     0  non0       -0.2821
     24  H1        13.3080   26.7390   31.9800 H       0  non0        0.2447
@<TRIPOS>BOND
     1    13    12    1
     2    12    14    1
     3    12     2    1
     4    15    14   ar
     5    15    16   ar
     6     4     5   ar
     7     4     3   ar
     8     5     6   ar
     9    14    19   ar
    10    16    17   ar
    11     2     3   ar
    12     2     1   ar
    13     3     8   ar
    14    22    20    1
    15     6     7   ar
    16    21    20    1
    17    19    18   ar
    18    17    18   ar
    19    20     1    1
    20    20    23    1
    21     1    10   ar
    22     8     7   ar
    23     8     9   ar
    24    10     9   ar
    25    10    11    2
    26    23    24    1
@<TRIPOS>MOLECULE
24343902_Intermediate
 24 26 0 0 0
SMALL
GASTEIGER

@<TRIPOS>ATOM
      1  C1        18.0150   29.3800   30.8660 C.ar    0  non0        0.1753
      2  C2        17.4550   29.3780   29.6480 C.ar    0  non0        0.0769
      3  C3        16.4280   30.3560   29.3250 C.ar    0  non0        0.0498
      4  C4        15.8280   30.4010   28.0680 C.ar    0  non0        0.0043
      5  C5        14.8440   31.3560   27.8010 C.ar    0  non0        0.0002
      6  C6        14.4550   32.2720   28.7860 C.ar    0  non0        0.0031
      7  C7        15.0450   32.2390   30.0510 C.ar    0  non0        0.0377
      8  C8        16.0290   31.2740   30.2980 C.ar    0  non0        0.1500
      9  O2        16.6220   31.2440   31.5820 O.2     0  non0       -0.4199
     10  C9        17.6060   30.3290   31.9120 C.ar    0  non0        0.3652
     11  O3        18.0190   30.4250   33.0470 O.2     0  non0       -0.2427
     12  N2        17.9070   28.3880   28.7030 N.pl3   0  non0       -0.2965
     13  H7        18.6520   28.6140   28.0610 H       0  non0        0.1537
     14  C10       17.2890   27.0740   28.6790 C.ar    0  non0        0.1322
     15  C11       16.3450   26.7680   27.6630 C.ar    0  non0        0.0344
     16  C12       15.7650   25.5020   27.6420 C.ar    0  non0        0.0045
     17  C13       16.1210   24.5900   28.6420 C.ar    0  non0        0.0208
     18  C14       17.0550   24.9590   29.6100 C.ar    0  non0        0.1003
     19  N3        17.6240   26.1750   29.6180 N.ar    0  non0       -0.2291
     20  N1        19.0500   28.4200   31.1570 N.4     0  non0       -0.2037
     21  O4        20.2930   29.1160   31.4260 O.3     0  non0       -0.0827
     22  H2        19.1690   27.8090   30.3610 H       0  non0        0.2037
     23  O1        18.6720   27.6370   32.3180 O.3     0  non0       -0.2821
     24  H1        18.9910   26.7380   32.2150 H       0  non0        0.2447
@<TRIPOS>BOND
     1    16    15   ar
     2    16    17   ar
     3    15    14   ar
     4     5     4   ar
     5     5     6   ar
     6    13    12    1
     7     4     3   ar
     8    17    18   ar
     9    14    12    1
    10    14    19   ar
    11    12     2    1
    12     6     7   ar
    13     3     2   ar
    14     3     8   ar
    15    18    19   ar
    16     2     1   ar
    17     7     8   ar
    18     8     9   ar
    19    22    20    1
    20     1    20    1
    21     1    10   ar
    22    20    21    1
    23    20    23    1
    24     9    10   ar
    25    10    11    2
    26    24    23    1
@<TRIPOS>MOLECULE
24343902_Intermediate
 24 26 0 0 0
SMALL
GASTEIGER

@<TRIPOS>ATOM
      1  C1        16.8330   27.3700   28.4450 C.ar    0  non0        0.1753
      2  C2        17.4640   28.4480   28.9310 C.ar    0  non0        0.0769
      3  C3        16.8570   29.7620   28.7910 C.ar    0  non0        0.0498
      4  C4        17.4700   30.9100   29.2910 C.ar    0  non0        0.0043
      5  C5        16.8520   32.1530   29.1330 C.ar    0  non0        0.0002
      6  C6        15.6210   32.2580   28.4760 C.ar    0  non0        0.0031
      7  C7        14.9950   31.1190   27.9660 C.ar    0  non0        0.0377
      8  C8        15.6300   29.8830   28.1360 C.ar    0  non0        0.1500
      9  O2        14.9920   28.7310   27.6160 O.2     0  non0       -0.4199
     10  C9        15.5450   27.4700   27.7420 C.ar    0  non0        0.3652
     11  O3        14.8840   26.5810   27.2490 O.2     0  non0       -0.2427
     12  N2        18.7360   28.2470   29.5780 N.pl3   0  non0       -0.2965
     13  H7        18.7720   28.1150   30.5790 H       0  non0        0.1537
     14  C10       19.9560   28.2340   28.7920 C.ar    0  non0        0.1322
     15  C11       20.7920   29.3820   28.7870 C.ar    0  non0        0.0344
     16  C12       21.9650   29.3580   28.0360 C.ar    0  non0        0.0045
     17  C13       22.2590   28.2070   27.2970 C.ar    0  non0        0.0208
     18  C14       21.3910   27.1150   27.3470 C.ar    0  non0        0.1003
     19  N3        20.2680   27.1370   28.0850 N.ar    0  non0       -0.2291
     20  N1        17.4380   26.0730   28.6190 N.4     0  non0       -0.2037
     21  O4        16.5900   25.2520   29.4600 O.3     0  non0       -0.0827
     22  H2        18.3420   26.1850   29.0560 H       0  non0        0.2037
     23  O1        17.5990   25.4380   27.3250 O.3     0  non0       -0.2821
     24  H1        18.3440   24.8330   27.3560 H       0  non0        0.2447
@<TRIPOS>BOND
     1    11    10    2
     2    17    18   ar
     3    17    16   ar
     4    23    24    1
     5    23    20    1
     6    18    19   ar
     7     9    10   ar
     8     9     8   ar
     9    10     1   ar
    10     7     8   ar
    11     7     6   ar
    12    16    15   ar
    13    19    14   ar
    14     8     3   ar
    15     1    20    1
    16     1     2   ar
    17     6     5   ar
    18    20    22    1
    19    20    21    1
    20    15    14   ar
    21     3     2   ar
    22     3     4   ar
    23    14    12    1
    24     2    12    1
    25     5     4   ar
    26    12    13    1
@<TRIPOS>MOLECULE
24281770_Intermediate
 24 26 0 0 0
SMALL
GASTEIGER

@<TRIPOS>ATOM
      1  C8        19.3570   25.0130   36.4140 C.ar    0  non0        0.0177
      2  C9        18.6060   23.8740   36.0780 C.ar    0  non0        0.0017
      3  C10       17.6330   23.9420   35.0760 C.ar    0  non0        0.0065
      4  C11       17.3970   25.1440   34.4040 C.ar    0  non0        0.0757
      5  C12       18.1410   26.2800   34.7440 C.ar    0  non0        0.0065
      6  C13       19.1140   26.2240   35.7440 C.ar    0  non0        0.0017
      7  C7        20.3590   24.9410   37.4280 C.ar    0  non0        0.0813
      8  C6        20.5950   23.7580   38.1270 C.ar    0  non0        0.0188
      9  C5        21.5800   23.7280   39.1220 C.ar    0  non0       -0.0012
     10  C4        22.3140   24.8860   39.3630 C.ar    0  non0       -0.0030
     11  C20       22.0140   26.0160   38.6220 C.ar    0  non0        0.0945
     12  N1        21.0570   26.0600   37.6720 N.ar    0  non0       -0.2442
     13  C3        23.3860   24.9300   40.3760 C.3     0  non0        0.0279
     14  C2        24.3630   23.7920   40.1280 C.3     0  non0        0.0047
     15  C1        25.3280   24.1850   39.0310 C.3     0  non0        0.0004
     16  C14       16.3950   25.2210   33.3630 C.2     0  non0        0.3416
     17  O1        15.2630   24.8100   33.5730 O.2     0  non0       -0.2449
     18  O2        16.7120   25.7470   32.1570 O.3     0  non0       -0.4370
     19  C15       17.3880   24.7730   31.3760 C.3     0  non0        0.2723
     20  C16       18.7190   25.2720   31.0220 C.ar    0  non0        0.1671
     21  C17       19.8210   24.8870   31.6530 C.ar    0  non0        0.0400
     22  C18       20.8660   25.6010   31.0160 C.ar    0  non0        0.0436
     23  C19       20.2820   26.3640   30.0200 C.ar    0  non0        0.1793
     24  O3        18.9270   26.1600   30.0330 O.2     0  non0       -0.4509
@<TRIPOS>BOND
     1    23    24   ar
     2    23    22   ar
     3    24    20   ar
     4    22    21   ar
     5    20    19    1
     6    20    21   ar
     7    19    18    1
     8    18    16    1
     9    16    17    2
    10    16     4    1
    11     4     5   ar
    12     4     3   ar
    13     5     6   ar
    14     3     2   ar
    15     6     1   ar
    16     2     1   ar
    17     1     7    1
    18     7    12   ar
    19     7     8   ar
    20    12    11   ar
    21     8     9   ar
    22    11    10   ar
    23    15    14    1
    24     9    10   ar
    25    10    13    1
    26    14    13    1
@<TRIPOS>MOLECULE
24281770_Intermediate
 24 26 0 0 0
SMALL
GASTEIGER

@<TRIPOS>ATOM
      1  C8        19.0630   25.8920   36.0300 C.ar    0  non0        0.0177
      2  C9        18.0540   26.6530   36.6460 C.ar    0  non0        0.0017
      3  C10       16.7370   26.1830   36.6750 C.ar    0  non0        0.0065
      4  C11       16.4130   24.9580   36.0890 C.ar    0  non0        0.0757
      5  C12       17.4170   24.2040   35.4690 C.ar    0  non0        0.0065
      6  C13       18.7350   24.6640   35.4330 C.ar    0  non0        0.0017
      7  C7        20.4090   26.3640   36.0120 C.ar    0  non0        0.0813
      8  C6        20.7500   27.5970   36.5670 C.ar    0  non0        0.0188
      9  C5        22.0800   28.0320   36.5220 C.ar    0  non0       -0.0012
     10  C4        23.0310   27.1980   35.9390 C.ar    0  non0       -0.0030
     11  C20       22.6060   25.9910   35.4120 C.ar    0  non0        0.0945
     12  N1        21.3240   25.5690   35.4370 N.ar    0  non0       -0.2442
     13  C3        24.4570   27.5700   35.8740 C.3     0  non0        0.0279
     14  C2        24.9450   27.9500   37.2630 C.3     0  non0        0.0047
     15  C1        25.2710   26.6960   38.0430 C.3     0  non0        0.0004
     16  C14       15.0530   24.4640   36.1180 C.2     0  non0        0.3416
     17  O1        14.1340   25.1820   35.7520 O.2     0  non0       -0.2449
     18  O2        14.8000   23.2070   36.5530 O.3     0  non0       -0.4370
     19  C15       14.7930   23.1870   37.9720 C.3     0  non0        0.2723
     20  C16       15.8220   22.2590   38.4490 C.ar    0  non0        0.1671
     21  C17       17.0020   22.6660   38.9010 C.ar    0  non0        0.0400
     22  C18       17.6840   21.4730   39.2450 C.ar    0  non0        0.0436
     23  C19       16.8220   20.4250   38.9740 C.ar    0  non0        0.1793
     24  O3        15.6530   20.9250   38.4640 O.2     0  non0       -0.4509
@<TRIPOS>BOND
     1    11    12   ar
     2    11    10   ar
     3     6     5   ar
     4     6     1   ar
     5    12     7   ar
     6     5     4   ar
     7    17    16    2
     8    13    10    1
     9    13    14    1
    10    10     9   ar
    11     7     1    1
    12     7     8   ar
    13     1     2   ar
    14     4    16    1
    15     4     3   ar
    16    16    18    1
    17     9     8   ar
    18    18    19    1
    19     2     3   ar
    20    14    15    1
    21    19    20    1
    22    20    24   ar
    23    20    21   ar
    24    24    23   ar
    25    21    22   ar
    26    23    22   ar
@<TRIPOS>MOLECULE
24281770_Intermediate
 24 26 0 0 0
SMALL
GASTEIGER

@<TRIPOS>ATOM
      1  C8        21.5010   27.3520   34.5980 C.ar    0  non0        0.0177
      2  C9        21.7730   26.2370   35.4080 C.ar    0  non0        0.0017
      3  C10       22.6320   26.3550   36.5060 C.ar    0  non0        0.0065
      4  C11       23.2300   27.5810   36.8020 C.ar    0  non0        0.0757
      5  C12       22.9660   28.6910   35.9900 C.ar    0  non0        0.0065
      6  C13       22.1110   28.5840   34.8920 C.ar    0  non0        0.0017
      7  C7        20.6150   27.2360   33.4860 C.ar    0  non0        0.0813
      8  C6        20.0240   26.0160   33.1580 C.ar    0  non0        0.0188
      9  C5        19.1670   25.9370   32.0540 C.ar    0  non0       -0.0012
     10  C4        18.9130   27.0980   31.3290 C.ar    0  non0       -0.0030
     11  C20       19.5410   28.2660   31.7230 C.ar    0  non0        0.0945
     12  N1        20.3800   28.3500   32.7760 N.ar    0  non0       -0.2442
     13  C3        18.0010   27.1060   30.1680 C.3     0  non0        0.0279
     14  C2        16.6690   26.4920   30.5660 C.3     0  non0        0.0047
     15  C1        15.8290   27.5290   31.2800 C.3     0  non0        0.0004
     16  C14       24.1170   27.7120   37.9380 C.2     0  non0        0.3416
     17  O1        25.0410   26.9260   38.0860 O.2     0  non0       -0.2449
     18  O2        23.9210   28.7050   38.8380 O.3     0  non0       -0.4370
     19  C15       22.8890   28.3340   39.7380 C.3     0  non0        0.2723
     20  C16       21.8010   29.3120   39.6600 C.ar    0  non0        0.1671
     21  C17       20.6830   29.0890   38.9810 C.ar    0  non0        0.0400
     22  C18       19.9180   30.2680   39.1540 C.ar    0  non0        0.0436
     23  C19       20.6610   31.1150   39.9570 C.ar    0  non0        0.1793
     24  O3        21.8520   30.5120   40.2650 O.2     0  non0       -0.4509
@<TRIPOS>BOND
     1    13    14    1
     2    13    10    1
     3    14    15    1
     4    10    11   ar
     5    10     9   ar
     6    11    12   ar
     7     9     8   ar
     8    12     7   ar
     9     8     7   ar
    10     7     1    1
    11     1     6   ar
    12     1     2   ar
    13     6     5   ar
    14     2     3   ar
    15     5     4   ar
    16     3     4   ar
    17     4    16    1
    18    16    17    2
    19    16    18    1
    20    18    19    1
    21    21    22   ar
    22    21    20   ar
    23    22    23   ar
    24    20    19    1
    25    20    24   ar
    26    23    24   ar
@<TRIPOS>MOLECULE
87335393_Accepted
 24 26 0 0 0
SMALL
GASTEIGER

@<TRIPOS>ATOM
      1  C3        19.4070   23.6430   33.8520 C.3     0  non0        0.0909
      2  C2        18.9780   25.0650   34.1170 C.3     0  non0        0.1159
      3  C1        20.0170   25.7540   34.9660 C.3     0  non0        0.0346
      4  C15       18.8350   25.7870   32.8260 C.ar    0  non0        0.0024
      5  C16       18.1070   25.2120   31.7690 C.ar    0  non0       -0.0012
      6  C17       17.9840   25.8860   30.5480 C.ar    0  non0        0.0111
      7  C18       18.5800   27.1370   30.3730 C.ar    0  non0        0.0577
      8  C19       19.3000   27.7120   31.4290 C.ar    0  non0        0.0111
      9 Cl         18.4330   27.9900   28.8430 Cl      0  non0       -0.0822
     10  C20       19.4270   27.0490   32.6490 C.ar    0  non0       -0.0012
     11  O1        17.7350   25.0640   34.7980 O.3     0  non0       -0.3820
     12  H18       17.0280   24.8820   34.1740 H       0  non0        0.2107
     13  C4        20.8890   23.5800   33.7710 C.ar    0  non0       -0.0143
     14  C5        21.6410   23.1350   34.8710 C.ar    0  non0       -0.0038
     15  C6        23.0380   23.0860   34.7970 C.ar    0  non0       -0.0003
     16  C7        23.6960   23.4790   33.6270 C.ar    0  non0       -0.0000
     17  C8        22.9450   23.9150   32.5290 C.ar    0  non0       -0.0003
     18  C9        21.5510   23.9650   32.5920 C.ar    0  non0       -0.0038
     19  C10       18.9350   22.7750   34.9490 C.ar    0  non0        0.0653
     20  C11       18.2770   21.5980   34.6410 C.ar    0  non0        0.0151
     21  C12       17.8500   20.7870   35.6910 C.ar    0  non0        0.0028
     22  C13       18.0880   21.2190   37.0020 C.ar    0  non0        0.0207
     23  C14       18.7580   22.4210   37.2210 C.ar    0  non0        0.0985
     24  N1        19.1820   23.1920   36.2070 N.ar    0  non0       -0.2477
@<TRIPOS>BOND
     1     9     7    1
     2     7     6   ar
     3     7     8   ar
     4     6     5   ar
     5     8    10   ar
     6     5     4   ar
     7    17    18   ar
     8    17    16   ar
     9    18    13   ar
    10    10     4   ar
    11     4     2    1
    12    16    15   ar
    13    13     1    1
    14    13    14   ar
    15     1     2    1
    16     1    19    1
    17     2    11    1
    18     2     3    1
    19    12    11    1
    20    20    19   ar
    21    20    21   ar
    22    15    14   ar
    23    19    24   ar
    24    21    22   ar
    25    24    23   ar
    26    22    23   ar
@<TRIPOS>MOLECULE
87335393_Accepted
 24 26 0 0 0
SMALL
GASTEIGER

@<TRIPOS>ATOM
      1  C3        14.9240   28.8670   31.9970 C.3     0  non0        0.0909
      2  C2        16.2360   28.3010   32.4820 C.3     0  non0        0.1159
      3  C1        16.6260   28.9750   33.7730 C.3     0  non0        0.0346
      4  C15       16.0900   26.8400   32.7090 C.ar    0  non0        0.0024
      5  C16       15.5080   26.0230   31.7230 C.ar    0  non0       -0.0012
      6  C17       15.3590   24.6490   31.9430 C.ar    0  non0        0.0111
      7  C18       15.7910   24.0780   33.1420 C.ar    0  non0        0.0577
      8  C19       16.3760   24.8910   34.1220 C.ar    0  non0        0.0111
      9 Cl         15.6050   22.3540   33.4290 Cl      0  non0       -0.0822
     10  C20       16.5310   26.2610   33.9110 C.ar    0  non0       -0.0012
     11  O1        17.2390   28.5300   31.5060 O.3     0  non0       -0.3820
     12  H18       17.9370   29.0690   31.8850 H       0  non0        0.2107
     13  C4        14.0820   29.2350   33.1630 C.ar    0  non0       -0.0143
     14  C5        13.9990   30.5720   33.5850 C.ar    0  non0       -0.0038
     15  C6        13.2130   30.9160   34.6920 C.ar    0  non0       -0.0003
     16  C7        12.5040   29.9310   35.3850 C.ar    0  non0       -0.0000
     17  C8        12.5800   28.5990   34.9590 C.ar    0  non0       -0.0003
     18  C9        13.3600   28.2470   33.8560 C.ar    0  non0       -0.0038
     19  C10       15.1800   30.0670   31.1750 C.ar    0  non0        0.0653
     20  C11       14.5630   30.1840   29.9420 C.ar    0  non0        0.0151
     21  C12       14.8090   31.3290   29.1880 C.ar    0  non0        0.0028
     22  C13       15.6870   32.2880   29.7060 C.ar    0  non0        0.0207
     23  C14       16.2670   32.0880   30.9570 C.ar    0  non0        0.0985
     24  N1        16.0160   30.9910   31.6890 N.ar    0  non0       -0.2477
@<TRIPOS>BOND
     1    21    22   ar
     2    21    20   ar
     3    22    23   ar
     4    20    19   ar
     5    23    24   ar
     6    19    24   ar
     7    19     1    1
     8    11    12    1
     9    11     2    1
    10     5     6   ar
    11     5     4   ar
    12     6     7   ar
    13     1     2    1
    14     1    13    1
    15     2     4    1
    16     2     3    1
    17     4    10   ar
    18     7     9    1
    19     7     8   ar
    20    13    14   ar
    21    13    18   ar
    22    14    15   ar
    23    18    17   ar
    24    10     8   ar
    25    15    16   ar
    26    17    16   ar
@<TRIPOS>MOLECULE
87335393_Accepted
 24 26 0 0 0
SMALL
GASTEIGER

@<TRIPOS>ATOM
      1  C3        22.9800   26.2840   30.6340 C.3     0  non0        0.0909
      2  C2        23.4400   25.0700   31.4030 C.3     0  non0        0.1159
      3  C1        23.3770   25.3590   32.8820 C.3     0  non0        0.0346
      4  C15       22.5570   23.9190   31.0840 C.ar    0  non0        0.0024
      5  C16       22.2560   23.6050   29.7470 C.ar    0  non0       -0.0012
      6  C17       21.4140   22.5280   29.4470 C.ar    0  non0        0.0111
      7  C18       20.8690   21.7550   30.4750 C.ar    0  non0        0.0577
      8  C19       21.1740   22.0650   31.8070 C.ar    0  non0        0.0111
      9 Cl         19.8070   20.4030   30.1100 Cl      0  non0       -0.0822
     10  C20       22.0140   23.1350   32.1150 C.ar    0  non0       -0.0012
     11  O1        24.7750   24.7590   31.0390 O.3     0  non0       -0.3820
     12  H18       24.7690   24.1280   30.3160 H       0  non0        0.2107
     13  C4        21.9400   27.0000   31.4160 C.ar    0  non0       -0.0143
     14  C5        22.2720   28.1460   32.1560 C.ar    0  non0       -0.0038
     15  C6        21.2920   28.8140   32.9010 C.ar    0  non0       -0.0003
     16  C7        19.9750   28.3460   32.9130 C.ar    0  non0       -0.0000
     17  C8        19.6430   27.2080   32.1680 C.ar    0  non0       -0.0003
     18  C9        20.6120   26.5370   31.4200 C.ar    0  non0       -0.0038
     19  C10       24.1280   27.1830   30.4010 C.ar    0  non0        0.0653
     20  C11       24.3510   27.6750   29.1270 C.ar    0  non0        0.0151
     21  C12       25.4330   28.5300   28.9310 C.ar    0  non0        0.0028
     22  C13       26.2510   28.8280   30.0290 C.ar    0  non0        0.0207
     23  C14       25.9530   28.2870   31.2770 C.ar    0  non0        0.0985
     24  N1        24.9010   27.4750   31.4660 N.ar    0  non0       -0.2477
@<TRIPOS>BOND
     1    21    20   ar
     2    21    22   ar
     3    20    19   ar
     4     6     5   ar
     5     6     7   ar
     6     5     4   ar
     7    22    23   ar
     8     9     7    1
     9    12    11    1
    10    19     1    1
    11    19    24   ar
    12     7     8   ar
    13     1     2    1
    14     1    13    1
    15    11     2    1
    16     4     2    1
    17     4    10   ar
    18    23    24   ar
    19     2     3    1
    20    13    18   ar
    21    13    14   ar
    22    18    17   ar
    23     8    10   ar
    24    14    15   ar
    25    17    16   ar
    26    15    16   ar
@<TRIPOS>MOLECULE
124949582_Intermediate
 33 36 0 0 0
SMALL
GASTEIGER

@<TRIPOS>ATOM
      1  C5        20.5580   29.4560   29.6230 C.ar    0  non0        0.1610
      2  N1        21.2500   30.3350   28.9130 N.ar    0  non0       -0.1320
      3  N2        20.4310   31.2920   28.5920 N.ar    0  non0       -0.1336
      4  C6        19.2180   31.0190   29.1160 C.ar    0  non0        0.1448
      5  C7        17.9850   31.8410   28.8830 C.3     0  non0        0.0873
      6  C8        16.8280   31.0210   28.3020 C.3     0  non0        0.1018
      7  N3        16.2050   30.0720   29.2650 N.am    0  non0       -0.2736
      8  C9        17.0210   28.8620   29.5690 C.3     0  non0        0.1182
      9  C10       18.2280   29.1380   30.4700 C.3     0  non0        0.1299
     10  N4        19.3030   29.8410   29.7650 N.ar    0  non0       -0.2990
     11  C11       14.9900   30.2620   29.8430 C.2     0  non0        0.2510
     12  O1        14.3380   31.2620   29.5810 O.2     0  non0       -0.2698
     13  C4        21.1140   28.2190   30.1770 C.3     0  non0        0.1307
     14  C2        22.2520   27.7170   29.2690 C.3     0  non0        0.0254
     15  C1        23.5760   27.8230   30.0100 C.3     0  non0        0.0022
     16  C3        21.9980   26.2640   28.8930 C.3     0  non0        0.0022
     17  N6        21.6360   28.4760   31.5130 N.am    0  non0       -0.2959
     18  C18       21.1230   27.8000   32.5890 C.2     0  non0        0.2493
     19  O3        20.2280   26.9820   32.4270 O.2     0  non0       -0.2700
     20  H23       22.3730   29.1400   31.7000 H       0  non0        0.1501
     21  C19       21.6210   28.0460   33.8760 C.ar    0  non0        0.0940
     22  C20       22.9340   28.5060   34.1340 C.ar    0  non0        0.0483
     23  C21       23.0490   28.6440   35.5060 C.ar    0  non0        0.1799
     24  O2        21.8690   28.2750   36.0950 O.2     0  non0       -0.4472
     25  C22       21.0130   27.9180   35.1030 C.ar    0  non0        0.1842
     26  C12       14.4650   29.2730   30.7760 C.ar    0  non0        0.0771
     27  C13       13.7550   28.1650   30.3240 C.ar    0  non0        0.0081
     28  C14       13.2510   27.2610   31.2660 C.ar    0  non0        0.0209
     29  C15       13.4900   27.4750   32.6220 C.ar    0  non0        0.0994
     30  N5        14.1880   28.5340   33.0600 N.ar    0  non0       -0.2375
     31  C16       14.6560   29.4090   32.1450 C.ar    0  non0        0.1110
     32  S1        15.5650   30.8100   32.6840 S.3     0  non0       -0.0939
     33  C17       16.5900   29.8920   33.8530 C.3     0  non0        0.0757
@<TRIPOS>BOND
     1     6     5    1
     2     6     7    1
     3     3     2   ar
     4     3     4   ar
     5     5     4    1
     6    16    14    1
     7     2     1   ar
     8     4    10   ar
     9     7     8    1
    10     7    11   am
    11    14    15    1
    12    14    13    1
    13     8     9    1
    14    12    11    2
    15     1    10   ar
    16     1    13    1
    17    10     9    1
    18    11    26    1
    19    13    17    1
    20    27    26   ar
    21    27    28   ar
    22    26    31   ar
    23    28    29   ar
    24    17    20    1
    25    17    18   am
    26    31    32    1
    27    31    30   ar
    28    19    18    2
    29    18    21    1
    30    29    30   ar
    31    32    33    1
    32    21    22   ar
    33    21    25   ar
    34    22    23   ar
    35    25    24   ar
    36    23    24   ar
@<TRIPOS>MOLECULE
124949582_Intermediate
 33 36 0 0 0
SMALL
GASTEIGER

@<TRIPOS>ATOM
      1  C5        18.2650   28.1240   36.1530 C.ar    0  non0        0.1610
      2  N1        19.3380   28.8460   35.8650 N.ar    0  non0       -0.1320
      3  N2        19.0200   29.6160   34.8660 N.ar    0  non0       -0.1336
      4  C6        17.7330   29.3840   34.5320 C.ar    0  non0        0.1448
      5  C7        17.0300   30.0110   33.3650 C.3     0  non0        0.0873
      6  C8        16.4380   28.9730   32.4040 C.3     0  non0        0.1018
      7  N3        15.2480   28.2540   32.9370 N.am    0  non0       -0.2736
      8  C9        15.5480   27.2370   33.9840 C.3     0  non0        0.1182
      9  C10       15.9170   27.8370   35.3440 C.3     0  non0        0.1299
     10  N4        17.2590   28.4240   35.3510 N.ar    0  non0       -0.2990
     11  C11       13.9730   28.4830   32.5250 C.2     0  non0        0.2510
     12  O1        13.7490   29.3220   31.6660 O.2     0  non0       -0.2698
     13  C4        18.2040   27.1220   37.2200 C.3     0  non0        0.1307
     14  C2        19.5990   26.5020   37.4210 C.3     0  non0        0.0254
     15  C1        20.1500   26.9210   38.7760 C.3     0  non0        0.0022
     16  C3        19.4930   24.9850   37.3640 C.3     0  non0        0.0022
     17  N6        17.7710   27.7580   38.4580 N.am    0  non0       -0.2959
     18  C18       16.6140   27.3490   39.0680 C.2     0  non0        0.2493
     19  O3        15.9470   26.4520   38.5730 O.2     0  non0       -0.2700
     20  H23       18.2870   28.5010   38.9070 H       0  non0        0.1501
     21  C19       16.1940   27.9590   40.2590 C.ar    0  non0        0.0940
     22  C20       17.0650   28.6440   41.1390 C.ar    0  non0        0.0483
     23  C21       16.2900   29.1180   42.1830 C.ar    0  non0        0.1799
     24  O2        14.9890   28.7390   41.9840 O.2     0  non0       -0.4472
     25  C22       14.9410   28.0420   40.8190 C.ar    0  non0        0.1842
     26  C12       12.8730   27.7260   33.1090 C.ar    0  non0        0.0771
     27  C13       12.5040   26.4850   32.5990 C.ar    0  non0        0.0081
     28  C14       11.4230   25.8140   33.1820 C.ar    0  non0        0.0209
     29  C15       10.7620   26.3860   34.2680 C.ar    0  non0        0.0994
     30  N5        11.1260   27.5750   34.7730 N.ar    0  non0       -0.2375
     31  C16       12.1600   28.2220   34.1930 C.ar    0  non0        0.1110
     32  S1        12.6560   29.7830   34.8220 S.3     0  non0       -0.0939
     33  C17       12.6050   29.2760   36.5540 C.3     0  non0        0.0757
@<TRIPOS>BOND
     1    12    11    2
     2     6     7    1
     3     6     5    1
     4    11     7   am
     5    11    26    1
     6    27    26   ar
     7    27    28   ar
     8     7     8    1
     9    26    31   ar
    10    28    29   ar
    11     5     4    1
    12     8     9    1
    13    31    30   ar
    14    31    32    1
    15    29    30   ar
    16     4     3   ar
    17     4    10   ar
    18    32    33    1
    19     3     2   ar
    20     9    10    1
    21    10     1   ar
    22     2     1   ar
    23     1    13    1
    24    13    14    1
    25    13    17    1
    26    16    14    1
    27    14    15    1
    28    17    20    1
    29    17    18   am
    30    19    18    2
    31    18    21    1
    32    21    25   ar
    33    21    22   ar
    34    25    24   ar
    35    22    23   ar
    36    24    23   ar
@<TRIPOS>MOLECULE
124949582_Intermediate
 33 36 0 0 0
SMALL
GASTEIGER

@<TRIPOS>ATOM
      1  C5        18.9970   26.0280   38.6270 C.ar    0  non0        0.1610
      2  N1        19.8260   26.2240   37.6110 N.ar    0  non0       -0.1320
      3  N2        19.1070   26.6410   36.6110 N.ar    0  non0       -0.1336
      4  C6        17.8190   26.7210   37.0050 C.ar    0  non0        0.1448
      5  C7        16.6740   27.0730   36.1040 C.3     0  non0        0.0873
      6  C8        15.5770   26.0010   36.0950 C.3     0  non0        0.1018
      7  N3        14.7760   25.9330   37.3480 N.am    0  non0       -0.2736
      8  C9        15.4820   25.3210   38.5090 C.3     0  non0        0.1182
      9  C10       16.5560   26.2210   39.1270 C.3     0  non0        0.1299
     10  N4        17.7540   26.3190   38.2900 N.ar    0  non0       -0.2990
     11  C11       13.5000   26.3860   37.4610 C.2     0  non0        0.2510
     12  O1        12.9400   26.8860   36.4960 O.2     0  non0       -0.2698
     13  C4        19.4070   25.5490   39.9490 C.3     0  non0        0.1307
     14  C2        20.6250   24.6190   39.8020 C.3     0  non0        0.0254
     15  C1        21.8530   25.2910   40.4000 C.3     0  non0        0.0022
     16  C3        20.3570   23.3120   40.5330 C.3     0  non0        0.0022
     17  N6        19.7630   26.6860   40.7880 N.am    0  non0       -0.2959
     18  C18       19.0830   26.9140   41.9560 C.2     0  non0        0.2493
     19  O3        18.1790   26.1620   42.2920 O.2     0  non0       -0.2700
     20  H23       20.5020   27.3350   40.5550 H       0  non0        0.1501
     21  C19       19.4220   28.0070   42.7650 C.ar    0  non0        0.0940
     22  C20       20.7250   28.5560   42.8380 C.ar    0  non0        0.0483
     23  C21       20.6630   29.6210   43.7190 C.ar    0  non0        0.1799
     24  O2        19.3840   29.7360   44.1950 O.2     0  non0       -0.4472
     25  C22       18.6420   28.7600   43.6120 C.ar    0  non0        0.1842
     26  C12       12.7990   26.2750   38.7340 C.ar    0  non0        0.0771
     27  C13       12.1100   25.1150   39.0760 C.ar    0  non0        0.0081
     28  C14       11.4330   25.0730   40.2990 C.ar    0  non0        0.0209
     29  C15       11.4820   26.1740   41.1530 C.ar    0  non0        0.0994
     30  N5        12.1590   27.2880   40.8330 N.ar    0  non0       -0.2375
     31  C16       12.7960   27.3250   39.6430 C.ar    0  non0        0.1110
     32  S1        13.6830   28.7690   39.1900 S.3     0  non0       -0.0939
     33  C17       14.5100   28.9520   40.7840 C.3     0  non0        0.0757
@<TRIPOS>BOND
     1     6     5    1
     2     6     7    1
     3     5     4    1
     4    12    11    2
     5     3     4   ar
     6     3     2   ar
     7     4    10   ar
     8     7    11   am
     9     7     8    1
    10    11    26    1
    11     2     1   ar
    12    10     1   ar
    13    10     9    1
    14     8     9    1
    15     1    13    1
    16    26    27   ar
    17    26    31   ar
    18    27    28   ar
    19    32    31    1
    20    32    33    1
    21    31    30   ar
    22    14    13    1
    23    14    15    1
    24    14    16    1
    25    13    17    1
    26    28    29   ar
    27    20    17    1
    28    17    18   am
    29    30    29   ar
    30    18    19    2
    31    18    21    1
    32    21    22   ar
    33    21    25   ar
    34    22    23   ar
    35    25    24   ar
    36    23    24   ar
@<TRIPOS>MOLECULE
24389158_Intermediate
 26 28 0 0 0
SMALL
GASTEIGER

@<TRIPOS>ATOM
      1  C3        18.7620   22.7970   33.9380 C.ar    0  non0        0.1185
      2  C4        18.9690   23.9460   34.6860 C.ar    0  non0        0.0634
      3  C5        18.1820   23.9290   35.9100 C.ar    0  non0        0.0219
      4  C6        17.3700   22.8050   35.9770 C.ar    0  non0        0.0309
      5  S1        17.6160   21.7710   34.6400 S.2     0  non0       -0.0793
      6  N1        19.8810   24.9400   34.1790 N.am    0  non0       -0.2798
      7  C13       19.3970   26.0600   33.5580 C.2     0  non0        0.2496
      8  O2        18.1920   26.2190   33.4330 O.2     0  non0       -0.2698
      9  H10       20.8830   24.8480   34.2600 H       0  non0        0.1552
     10  C14       20.3210   27.0630   33.0430 C.ar    0  non0        0.0559
     11  C15       19.8530   28.3380   32.6800 C.ar    0  non0        0.0047
     12  C16       20.7390   29.2960   32.1740 C.ar    0  non0        0.0025
     13  C17       22.0960   28.9940   32.0330 C.ar    0  non0        0.0296
     14  C18       22.5620   27.7270   32.4010 C.ar    0  non0        0.1403
     15  C19       21.6870   26.7640   32.9070 C.ar    0  non0        0.0342
     16  F1        23.8930   27.4350   32.2630 F       0  non0       -0.2042
     17  C2        19.4320   22.5240   32.7350 C.2     0  non0        0.3486
     18  O3        20.6540   22.5050   32.7060 O.2     0  non0       -0.2443
     19  O1        18.7240   22.2810   31.6050 O.3     0  non0       -0.4410
     20  C1        18.3680   23.5110   30.9970 C.3     0  non0        0.2560
     21  C7        16.4860   22.5560   36.9870 C.ar    0  non0        0.0060
     22  C8        16.1940   23.5520   37.9350 C.ar    0  non0        0.0005
     23  C9        15.2990   23.2910   38.9780 C.ar    0  non0        0.0000
     24  C10       14.6860   22.0400   39.0830 C.ar    0  non0        0.0000
     25  C11       14.9730   21.0500   38.1370 C.ar    0  non0        0.0000
     26  C12       15.8640   21.3010   37.0910 C.ar    0  non0        0.0005
@<TRIPOS>BOND
     1    20    19    1
     2    19    17    1
     3    13    12   ar
     4    13    14   ar
     5    12    11   ar
     6    16    14    1
     7    14    15   ar
     8    11    10   ar
     9    18    17    2
    10    17     1    1
    11    15    10   ar
    12    10     7    1
    13     8     7    2
    14     7     6   am
    15     1     5   ar
    16     1     2   ar
    17     6     9    1
    18     6     2    1
    19     5     4   ar
    20     2     3   ar
    21     3     4   ar
    22     4    21    1
    23    21    26   ar
    24    21    22   ar
    25    26    25   ar
    26    22    23   ar
    27    25    24   ar
    28    23    24   ar
@<TRIPOS>MOLECULE
24389158_Intermediate
 26 28 0 0 0
SMALL
GASTEIGER

@<TRIPOS>ATOM
      1  C3        21.4250   26.2530   32.0220 C.ar    0  non0        0.1185
      2  C4        21.5170   26.5210   33.3800 C.ar    0  non0        0.0634
      3  C5        20.9080   27.8000   33.7090 C.ar    0  non0        0.0219
      4  C6        20.4590   28.4580   32.5720 C.ar    0  non0        0.0309
      5  S1        20.7000   27.5170   31.1650 S.2     0  non0       -0.0793
      6  N1        22.1660   25.5530   34.2270 N.am    0  non0       -0.2798
      7  C13       23.4600   25.7490   34.6270 C.2     0  non0        0.2496
      8  O2        24.0680   26.7460   34.2650 O.2     0  non0       -0.2698
      9  H10       21.7010   24.7160   34.5490 H       0  non0        0.1552
     10  C14       24.1160   24.7680   35.4820 C.ar    0  non0        0.0559
     11  C15       25.3260   25.0830   36.1240 C.ar    0  non0        0.0047
     12  C16       25.9600   24.1350   36.9350 C.ar    0  non0        0.0025
     13  C17       25.3920   22.8720   37.1180 C.ar    0  non0        0.0296
     14  C18       24.1830   22.5620   36.4850 C.ar    0  non0        0.1403
     15  C19       23.5410   23.5000   35.6730 C.ar    0  non0        0.0342
     16  F1        23.6270   21.3230   36.6680 F       0  non0       -0.2042
     17  C2        21.8840   25.0640   31.4340 C.2     0  non0        0.3486
     18  O3        21.4770   23.9850   31.8370 O.2     0  non0       -0.2443
     19  O1        22.7810   25.1130   30.4180 O.3     0  non0       -0.4410
     20  C1        24.0900   25.2290   30.9490 C.3     0  non0        0.2560
     21  C7        19.8950   29.7010   32.5750 C.ar    0  non0        0.0060
     22  C8        19.2330   30.1820   31.4330 C.ar    0  non0        0.0005
     23  C9        18.6660   31.4610   31.4320 C.ar    0  non0        0.0000
     24  C10       18.7510   32.2680   32.5700 C.ar    0  non0        0.0000
     25  C11       19.4060   31.7870   33.7090 C.ar    0  non0        0.0000
     26  C12       19.9730   30.5110   33.7200 C.ar    0  non0        0.0005
@<TRIPOS>BOND
     1    19    20    1
     2    19    17    1
     3     5     1   ar
     4     5     4   ar
     5    23    22   ar
     6    23    24   ar
     7    22    21   ar
     8    17    18    2
     9    17     1    1
    10     1     2   ar
    11    24    25   ar
    12     4    21    1
    13     4     3   ar
    14    21    26   ar
    15     2     3   ar
    16     2     6    1
    17    25    26   ar
    18     6     9    1
    19     6     7   am
    20     8     7    2
    21     7    10    1
    22    10    15   ar
    23    10    11   ar
    24    15    14   ar
    25    11    12   ar
    26    14    16    1
    27    14    13   ar
    28    12    13   ar
@<TRIPOS>MOLECULE
24389158_Intermediate
 26 28 0 0 0
SMALL
GASTEIGER

@<TRIPOS>ATOM
      1  C3        22.0920   27.0200   29.9950 C.ar    0  non0        0.1185
      2  C4        22.2920   26.9380   31.3650 C.ar    0  non0        0.0634
      3  C5        21.0760   26.5320   32.0530 C.ar    0  non0        0.0219
      4  C6        20.0100   26.4050   31.1730 C.ar    0  non0        0.0309
      5  S1        20.4910   26.6920   29.5580 S.2     0  non0       -0.0793
      6  N1        23.5990   27.2480   31.8860 N.am    0  non0       -0.2798
      7  C13       23.8410   28.4750   32.4420 C.2     0  non0        0.2496
      8  O2        22.9490   29.3100   32.4970 O.2     0  non0       -0.2698
      9  H10       24.3630   26.5890   31.8610 H       0  non0        0.1552
     10  C14       25.1640   28.7890   32.9680 C.ar    0  non0        0.0559
     11  C15       25.3480   29.8990   33.8100 C.ar    0  non0        0.0047
     12  C16       26.6210   30.2050   34.3030 C.ar    0  non0        0.0025
     13  C17       27.7180   29.4060   33.9680 C.ar    0  non0        0.0296
     14  C18       27.5310   28.2960   33.1360 C.ar    0  non0        0.1403
     15  C19       26.2660   27.9820   32.6370 C.ar    0  non0        0.0342
     16  F1        28.6080   27.5140   32.8100 F       0  non0       -0.2042
     17  C2        23.1080   27.3390   29.0810 C.2     0  non0        0.3486
     18  O3        24.1350   26.6780   29.0520 O.2     0  non0       -0.2443
     19  O1        22.9500   28.3830   28.2290 O.3     0  non0       -0.4410
     20  C1        23.3070   29.5870   28.8870 C.3     0  non0        0.2560
     21  C7        18.7370   26.0890   31.5490 C.ar    0  non0        0.0060
     22  C8        18.3780   26.0930   32.9080 C.ar    0  non0        0.0005
     23  C9        17.0760   25.7560   33.2940 C.ar    0  non0        0.0000
     24  C10       16.1230   25.4150   32.3310 C.ar    0  non0        0.0000
     25  C11       16.4790   25.4150   30.9770 C.ar    0  non0        0.0000
     26  C12       17.7750   25.7530   30.5820 C.ar    0  non0        0.0005
@<TRIPOS>BOND
     1    19    20    1
     2    19    17    1
     3    18    17    2
     4    17     1    1
     5     5     1   ar
     6     5     4   ar
     7     1     2   ar
     8    26    25   ar
     9    26    21   ar
    10    25    24   ar
    11     4    21    1
    12     4     3   ar
    13     2     6    1
    14     2     3   ar
    15    21    22   ar
    16     9     6    1
    17     6     7   am
    18    24    23   ar
    19     7     8    2
    20     7    10    1
    21    15    10   ar
    22    15    14   ar
    23    16    14    1
    24    22    23   ar
    25    10    11   ar
    26    14    13   ar
    27    11    12   ar
    28    13    12   ar
@<TRIPOS>MOLECULE
11532888_Intermediate
 20 22 0 0 0
SMALL
GASTEIGER

@<TRIPOS>ATOM
      1  C1        18.0000   29.0450   30.8910 C.ar    0  non0        0.1365
      2  C2        18.6140   29.1720   32.1390 C.ar    0  non0        0.0367
      3  C3        18.1270   30.0920   33.0560 C.ar    0  non0        0.0031
      4  C4        17.0230   30.8740   32.7250 C.ar    0  non0        0.0003
      5  C5        16.3950   30.7550   31.4720 C.ar    0  non0        0.0058
      6  C6        15.2770   31.5440   31.1740 C.ar    0  non0        0.0004
      7  C7        14.6150   31.4640   29.9400 C.ar    0  non0        0.0058
      8  C8        13.5010   32.2880   29.6950 C.ar    0  non0        0.0003
      9  C9        12.8300   32.2480   28.4750 C.ar    0  non0        0.0031
     10  C10       13.2670   31.3840   27.4830 C.ar    0  non0        0.0367
     11  C11       14.3710   30.5610   27.7150 C.ar    0  non0        0.1365
     12  C12       15.0720   30.5670   28.9500 C.ar    0  non0        0.0674
     13  C13       16.2100   29.7610   29.2590 C.ar    0  non0        0.1393
     14  C14       16.8830   29.8380   30.5160 C.ar    0  non0        0.0674
     15  O1        18.4790   28.1700   30.0660 O.3     0  non0       -0.5054
     16  H1        18.7990   28.6150   29.2780 H       0  non0        0.2922
     17  O2        16.6260   28.9380   28.3500 O.3     0  non0       -0.5053
     18  H9        16.0470   28.1730   28.3240 H       0  non0        0.2922
     19  O3        14.7500   29.7740   26.7600 O.3     0  non0       -0.5054
     20  H10       14.8640   28.8850   27.1040 H       0  non0        0.2922
@<TRIPOS>BOND
     1    19    20    1
     2    19    11    1
     3    10    11   ar
     4    10     9   ar
     5    11    12   ar
     6    18    17    1
     7    17    13    1
     8     9     8   ar
     9    12    13   ar
    10    12     7   ar
    11    13    14   ar
    12    16    15    1
    13     8     7   ar
    14     7     6   ar
    15    15     1    1
    16    14     1   ar
    17    14     5   ar
    18     1     2   ar
    19     6     5   ar
    20     5     4   ar
    21     2     3   ar
    22     4     3   ar
@<TRIPOS>MOLECULE
11532888_Intermediate
 20 22 0 0 0
SMALL
GASTEIGER

@<TRIPOS>ATOM
      1  C1        12.5640   31.0900   29.2330 C.ar    0  non0        0.1365
      2  C2        13.2450   32.2880   29.4570 C.ar    0  non0        0.0367
      3  C3        14.4680   32.2740   30.1110 C.ar    0  non0        0.0031
      4  C4        15.0110   31.0610   30.5280 C.ar    0  non0        0.0003
      5  C5        14.3360   29.8480   30.3070 C.ar    0  non0        0.0058
      6  C6        14.9150   28.6420   30.7260 C.ar    0  non0        0.0004
      7  C7        14.2850   27.4050   30.5290 C.ar    0  non0        0.0058
      8  C8        14.9110   26.2270   30.9780 C.ar    0  non0        0.0003
      9  C9        14.3060   24.9830   30.8150 C.ar    0  non0        0.0031
     10  C10       13.0650   24.9010   30.2050 C.ar    0  non0        0.0367
     11  C11       12.4330   26.0630   29.7550 C.ar    0  non0        0.1365
     12  C12       13.0250   27.3470   29.8930 C.ar    0  non0        0.0674
     13  C13       12.4400   28.5770   29.4650 C.ar    0  non0        0.1393
     14  C14       13.0820   29.8370   29.6600 C.ar    0  non0        0.0674
     15  O1        11.4290   31.1430   28.6140 O.3     0  non0       -0.5054
     16  H1        10.7310   31.3460   29.2410 H       0  non0        0.2922
     17  O2        11.2860   28.5210   28.8810 O.3     0  non0       -0.5053
     18  H9        10.6880   29.1470   29.2960 H       0  non0        0.2922
     19  O3        11.2720   25.9430   29.1960 O.3     0  non0       -0.5054
     20  H10       10.6880   25.4470   29.7750 H       0  non0        0.2922
@<TRIPOS>BOND
     1    15     1    1
     2    15    16    1
     3    17    18    1
     4    17    13    1
     5    19    11    1
     6    19    20    1
     7     1     2   ar
     8     1    14   ar
     9     2     3   ar
    10    13    14   ar
    11    13    12   ar
    12    14     5   ar
    13    11    12   ar
    14    11    10   ar
    15    12     7   ar
    16     3     4   ar
    17    10     9   ar
    18     5     4   ar
    19     5     6   ar
    20     7     6   ar
    21     7     8   ar
    22     9     8   ar
@<TRIPOS>MOLECULE
11532888_Intermediate
 20 22 0 0 0
SMALL
GASTEIGER

@<TRIPOS>ATOM
      1  C1        14.0220   32.0660   32.2710 C.ar    0  non0        0.1365
      2  C2        13.4250   32.1620   31.0120 C.ar    0  non0        0.0367
      3  C3        14.2200   32.2640   29.8790 C.ar    0  non0        0.0031
      4  C4        15.6060   32.2610   30.0090 C.ar    0  non0        0.0003
      5  C5        16.2190   32.1640   31.2710 C.ar    0  non0        0.0058
      6  C6        17.6170   32.1480   31.3680 C.ar    0  non0        0.0004
      7  C7        18.2780   32.0510   32.6010 C.ar    0  non0        0.0058
      8  C8        19.6840   32.0480   32.6370 C.ar    0  non0        0.0003
      9  C9        20.3730   31.9720   33.8450 C.ar    0  non0        0.0031
     10  C10       19.6640   31.9020   35.0340 C.ar    0  non0        0.0367
     11  C11       18.2670   31.9050   35.0110 C.ar    0  non0        0.1365
     12  C12       17.5320   31.9700   33.7980 C.ar    0  non0        0.0674
     13  C13       16.1080   31.9830   33.6950 C.ar    0  non0        0.1393
     14  C14       15.4330   32.0750   32.4400 C.ar    0  non0        0.0674
     15  O1        13.2480   31.9650   33.3030 O.3     0  non0       -0.5054
     16  H1        13.7510   32.1450   34.1000 H       0  non0        0.2922
     17  O2        15.4260   31.9060   34.7920 O.3     0  non0       -0.5053
     18  H9        15.9040   31.3670   35.4270 H       0  non0        0.2922
     19  O3        17.6440   31.8450   36.1430 O.3     0  non0       -0.5054
     20  H10       17.8410   31.0100   36.5730 H       0  non0        0.2922
@<TRIPOS>BOND
     1     3     4   ar
     2     3     2   ar
     3     4     5   ar
     4     2     1   ar
     5     5     6   ar
     6     5    14   ar
     7     6     7   ar
     8     1    14   ar
     9     1    15    1
    10    14    13   ar
    11     7     8   ar
    12     7    12   ar
    13     8     9   ar
    14    15    16    1
    15    13    12   ar
    16    13    17    1
    17    12    11   ar
    18     9    10   ar
    19    17    18    1
    20    11    10   ar
    21    11    19    1
    22    19    20    1
@<TRIPOS>MOLECULE
24839682_Accepted
 29 32 0 0 0
SMALL
GASTEIGER

@<TRIPOS>ATOM
      1  C9        17.1550   30.9000   29.0070 C.3     0  non0        0.1507
      2  C10       16.4130   29.7840   28.3510 C.2     0  non0        0.2508
      3  N1        15.1220   30.2320   28.1280 N.am    0  non0       -0.2035
      4  C20       15.0320   31.5490   28.6150 C.2     0  non0        0.3105
      5  N4        16.2630   31.9200   29.0870 N.am    0  non0       -0.2821
      6  O2        14.0720   32.2880   28.6460 O.2     0  non0       -0.2522
      7  O3        16.8010   28.6770   28.0460 O.2     0  non0       -0.2726
      8  H17       16.4860   32.8350   29.4500 H       0  non0        0.1514
      9  C11       13.9810   29.6160   27.5320 C.3     0  non0        0.1891
     10  C12       13.2410   28.8710   28.5510 C.ar    0  non0        0.2469
     11  N2        11.9430   28.5840   28.4520 N.ar    0  non0       -0.1096
     12  N3        11.6330   27.8860   29.5970 N.ar    0  non0       -0.1071
     13  C13       12.7440   27.7980   30.2960 C.ar    0  non0        0.2501
     14  O1        13.7940   28.4100   29.6730 O.2     0  non0       -0.4177
     15  C14       12.9480   27.1980   31.5050 C.ar    0  non0        0.0613
     16  C15       13.1600   25.8120   31.5830 C.ar    0  non0        0.0052
     17  C16       13.3560   25.1950   32.8240 C.ar    0  non0        0.0002
     18  C17       13.3440   25.9560   33.9960 C.ar    0  non0        0.0005
     19  C18       13.1400   27.3390   33.9180 C.ar    0  non0        0.0068
     20  C19       12.9450   27.9630   32.6850 C.ar    0  non0        0.0391
     21 Br         12.6740   29.8680   32.5760 Br      0  non0       -0.0488
     22  C1        17.6240   30.4860   30.4040 C.3     0  non0        0.0337
     23  C2        16.4200   30.3350   31.3180 C.3     0  non0        0.0286
     24  C3        16.5580   29.0930   32.1200 C.ar    0  non0       -0.0221
     25  C4        16.5960   29.1540   33.5240 C.ar    0  non0       -0.0043
     26  C5        16.7400   27.9840   34.2780 C.ar    0  non0       -0.0003
     27  C6        16.8410   26.7440   33.6400 C.ar    0  non0       -0.0000
     28  C7        16.7970   26.6830   32.2430 C.ar    0  non0       -0.0003
     29  C8        16.6520   27.8440   31.4820 C.ar    0  non0       -0.0043
@<TRIPOS>BOND
     1     9     3    1
     2     9    10    1
     3     7     2    2
     4     3     2   am
     5     3     4   am
     6     2     1    1
     7    11    10   ar
     8    11    12   ar
     9    10    14   ar
    10     4     6    2
    11     4     5   am
    12     1     5    1
    13     1    22    1
    14     5     8    1
    15    12    13   ar
    16    14    13   ar
    17    13    15    1
    18    22    23    1
    19    23    24    1
    20    29    24   ar
    21    29    28   ar
    22    15    16   ar
    23    15    20   ar
    24    16    17   ar
    25    24    25   ar
    26    28    27   ar
    27    21    20    1
    28    20    19   ar
    29    17    18   ar
    30    25    26   ar
    31    27    26   ar
    32    19    18   ar
@<TRIPOS>MOLECULE
24839682_Accepted
 29 32 0 0 0
SMALL
GASTEIGER

@<TRIPOS>ATOM
      1  C9        21.2300   25.2630   33.3700 C.3     0  non0        0.1507
      2  C10       22.2700   26.3200   33.2110 C.2     0  non0        0.2508
      3  N1        23.5010   25.6860   33.2340 N.am    0  non0       -0.2035
      4  C20       23.2720   24.3080   33.4050 C.2     0  non0        0.3105
      5  N4        21.9190   24.0950   33.4380 N.am    0  non0       -0.2821
      6  O2        24.0760   23.4070   33.5120 O.2     0  non0       -0.2522
      7  O3        22.1350   27.5180   33.0840 O.2     0  non0       -0.2726
      8  H17       21.4830   23.1870   33.5050 H       0  non0        0.1514
      9  C11       24.8360   26.1750   33.1200 C.3     0  non0        0.1891
     10  C12       25.3310   26.5590   34.4420 C.ar    0  non0        0.2469
     11  N2        26.6260   26.6040   34.7550 N.ar    0  non0       -0.1096
     12  N3        26.6700   27.0020   36.0730 N.ar    0  non0       -0.1071
     13  C13       25.4230   27.1680   36.4580 C.ar    0  non0        0.2501
     14  O1        24.5340   26.8980   35.4570 O.2     0  non0       -0.4177
     15  C14       24.9500   27.5560   37.6770 C.ar    0  non0        0.0613
     16  C15       24.9060   28.9180   38.0210 C.ar    0  non0        0.0052
     17  C16       24.4330   29.3160   39.2770 C.ar    0  non0        0.0002
     18  C17       23.9980   28.3590   40.1980 C.ar    0  non0        0.0005
     19  C18       24.0350   27.0020   39.8540 C.ar    0  non0        0.0068
     20  C19       24.5040   26.5970   38.6040 C.ar    0  non0        0.0391
     21 Br         24.5440   24.7310   38.1240 Br      0  non0       -0.0488
     22  C1        20.4260   25.4880   34.6520 C.3     0  non0        0.0337
     23  C2        21.3130   25.2290   35.8580 C.3     0  non0        0.0286
     24  C3        21.1050   26.3010   36.8660 C.ar    0  non0       -0.0221
     25  C4        20.6460   25.9840   38.1550 C.ar    0  non0       -0.0043
     26  C5        20.4380   26.9960   39.0990 C.ar    0  non0       -0.0003
     27  C6        20.6920   28.3300   38.7670 C.ar    0  non0       -0.0000
     28  C7        21.1560   28.6440   37.4850 C.ar    0  non0       -0.0003
     29  C8        21.3680   27.6420   36.5370 C.ar    0  non0       -0.0043
@<TRIPOS>BOND
     1     7     2    2
     2     9     3    1
     3     9    10    1
     4     2     3   am
     5     2     1    1
     6     3     4   am
     7     1     5    1
     8     1    22    1
     9     4     5   am
    10     4     6    2
    11     5     8    1
    12    10    11   ar
    13    10    14   ar
    14    22    23    1
    15    11    12   ar
    16    14    13   ar
    17    23    24    1
    18    12    13   ar
    19    13    15    1
    20    29    24   ar
    21    29    28   ar
    22    24    25   ar
    23    28    27   ar
    24    15    16   ar
    25    15    20   ar
    26    16    17   ar
    27    21    20    1
    28    25    26   ar
    29    20    19   ar
    30    27    26   ar
    31    17    18   ar
    32    19    18   ar
@<TRIPOS>MOLECULE
24839682_Accepted
 29 32 0 0 0
SMALL
GASTEIGER

@<TRIPOS>ATOM
      1  C9        27.4380   27.4040   33.8290 C.3     0  non0        0.1507
      2  C10       26.0440   27.8110   34.1710 C.2     0  non0        0.2508
      3  N1        26.0000   27.9960   35.5430 N.am    0  non0       -0.2035
      4  C20       27.2800   27.7190   36.0560 C.2     0  non0        0.3105
      5  N4        28.1090   27.4150   35.0090 N.am    0  non0       -0.2821
      6  O2        27.6600   27.7270   37.2070 O.2     0  non0       -0.2522
      7  O3        25.0880   27.9660   33.4420 O.2     0  non0       -0.2726
      8  H17       29.0960   27.2220   35.0970 H       0  non0        0.1514
      9  C11       24.9510   28.3900   36.4250 C.3     0  non0        0.1891
     10  C12       24.2000   27.2070   36.8500 C.ar    0  non0        0.2469
     11  N2        23.4960   27.1530   37.9810 N.ar    0  non0       -0.1096
     12  N3        22.9500   25.8890   38.0110 N.ar    0  non0       -0.1071
     13  C13       23.3520   25.2790   36.9170 C.ar    0  non0        0.2501
     14  O1        24.1490   26.0760   36.1460 O.2     0  non0       -0.4177
     15  C14       23.0750   24.0110   36.4950 C.ar    0  non0        0.0613
     16  C15       21.8690   23.7310   35.8310 C.ar    0  non0        0.0052
     17  C16       21.5790   22.4290   35.4100 C.ar    0  non0        0.0002
     18  C17       22.4900   21.3950   35.6460 C.ar    0  non0        0.0005
     19  C18       23.6960   21.6750   36.3010 C.ar    0  non0        0.0068
     20  C19       23.9940   22.9710   36.7240 C.ar    0  non0        0.0391
     21 Br         25.6570   23.3590   37.6160 Br      0  non0       -0.0488
     22  C1        27.4540   26.0030   33.2150 C.3     0  non0        0.0337
     23  C2        27.0860   24.9800   34.2770 C.3     0  non0        0.0286
     24  C3        26.1190   24.0040   33.7120 C.ar    0  non0       -0.0221
     25  C4        26.4390   22.6360   33.6610 C.ar    0  non0       -0.0043
     26  C5        25.5320   21.7190   33.1170 C.ar    0  non0       -0.0003
     27  C6        24.3000   22.1570   32.6240 C.ar    0  non0       -0.0000
     28  C7        23.9800   23.5180   32.6800 C.ar    0  non0       -0.0003
     29  C8        24.8760   24.4400   33.2230 C.ar    0  non0       -0.0043
@<TRIPOS>BOND
     1    27    28   ar
     2    27    26   ar
     3    28    29   ar
     4    26    25   ar
     5    22     1    1
     6    22    23    1
     7    29    24   ar
     8     7     2    2
     9    25    24   ar
    10    24    23    1
    11     1     2    1
    12     1     5    1
    13     2     3   am
    14     5     8    1
    15     5     4   am
    16    17    18   ar
    17    17    16   ar
    18     3     4   am
    19     3     9    1
    20    18    19   ar
    21    16    15   ar
    22     4     6    2
    23    14    10   ar
    24    14    13   ar
    25    19    20   ar
    26     9    10    1
    27    15    20   ar
    28    15    13    1
    29    20    21    1
    30    10    11   ar
    31    13    12   ar
    32    11    12   ar
@<TRIPOS>MOLECULE
22411586_Intermediate
 30 32 0 0 0
SMALL
GASTEIGER

@<TRIPOS>ATOM
      1  C8        16.8300   26.8720   42.2650 C.2     0  non0        0.2261
      2  N2        16.1880   25.6640   42.2620 N.am    0  non0       -0.2760
      3  C9        16.9060   24.4360   42.0730 C.3     0  non0        0.1148
      4  C10       16.3260   23.6770   40.8590 C.3     0  non0        0.1124
      5  N3        14.8090   23.5270   40.9960 N.pl3   0  non0       -0.3017
      6  C11       14.1230   24.8760   41.2380 C.3     0  non0        0.1124
      7  C12       14.7690   25.5720   42.4460 C.3     0  non0        0.1148
      8  O3        18.0410   26.9220   42.1050 O.2     0  non0       -0.2749
      9  C7        16.0660   28.1100   42.4590 C.3     0  non0        0.0899
     10  C6        15.7410   28.9330   41.3350 C.3     0  non0        0.0360
     11  C5        14.7620   28.4900   40.3790 C.ar    0  non0       -0.0202
     12  C4        13.4200   28.8480   40.5560 C.ar    0  non0       -0.0042
     13  C3        12.4660   28.4180   39.6300 C.ar    0  non0        0.0012
     14  C2        12.8490   27.6400   38.5330 C.ar    0  non0        0.0194
     15  C1        14.1930   27.2970   38.3650 C.ar    0  non0        0.0859
     16  C21       15.1530   27.7120   39.2880 C.ar    0  non0        0.0152
     17  N1        14.5810   26.5050   37.2270 N.4     0  non0       -0.2111
     18  O4        15.6250   27.1940   36.4910 O.3     0  non0       -0.0829
     19  H2        13.7780   26.3670   36.6300 H       0  non0        0.2034
     20  O1        15.0780   25.2200   37.6780 O.3     0  non0       -0.2823
     21  H1        14.7750   25.0560   38.5740 H       0  non0        0.2447
     22  C13       14.1620   22.2440   40.8980 C.ar    0  non0        0.0824
     23  C14       14.0160   21.4350   42.0370 C.ar    0  non0        0.0176
     24  C15       13.3990   20.1840   41.9400 C.ar    0  non0        0.0015
     25  C16       12.9200   19.7290   40.7080 C.ar    0  non0        0.0032
     26  C17       13.0600   20.5370   39.5740 C.ar    0  non0        0.0382
     27  C18       13.6720   21.7900   39.6620 C.ar    0  non0        0.1517
     28  O2        13.8020   22.5800   38.5560 O.3     0  non0       -0.4742
     29  C19       12.5410   22.7150   37.9210 C.3     0  non0        0.2056
     30  C20       11.8490   23.9590   38.4360 C.3     0  non0        0.0512
@<TRIPOS>BOND
     1    18    17    1
     2    19    17    1
     3    17    20    1
     4    17    15    1
     5    20    21    1
     6    29    30    1
     7    29    28    1
     8    15    14   ar
     9    15    16   ar
    10    14    13   ar
    11    28    27    1
    12    16    11   ar
    13    26    27   ar
    14    26    25   ar
    15    13    12   ar
    16    27    22   ar
    17    11    12   ar
    18    11    10    1
    19    25    24   ar
    20     4     5    1
    21     4     3    1
    22    22     5    1
    23    22    23   ar
    24     5     6    1
    25     6     7    1
    26    10     9    1
    27    24    23   ar
    28     3     2    1
    29     8     1    2
    30     2     1   am
    31     2     7    1
    32     1     9    1
@<TRIPOS>MOLECULE
22411586_Intermediate
 30 32 0 0 0
SMALL
GASTEIGER

@<TRIPOS>ATOM
      1  C8        28.3720   22.0780   37.8100 C.2     0  non0        0.2261
      2  N2        27.9850   22.5840   36.5980 N.am    0  non0       -0.2760
      3  C9        28.6820   23.6810   35.9900 C.3     0  non0        0.1148
      4  C10       27.6940   24.8380   35.7210 C.3     0  non0        0.1124
      5  N3        26.4750   24.3320   34.9450 N.pl3   0  non0       -0.3017
      6  C11       25.8160   23.1340   35.6370 C.3     0  non0        0.1124
      7  C12       26.8660   22.0410   35.8850 C.3     0  non0        0.1148
      8  O3        29.3280   22.5610   38.3970 O.2     0  non0       -0.2749
      9  C7        27.6360   20.9550   38.4050 C.3     0  non0        0.0899
     10  C6        26.6920   21.1960   39.4530 C.3     0  non0        0.0360
     11  C5        25.4520   21.8650   39.1630 C.ar    0  non0       -0.0202
     12  C4        24.3230   21.1060   38.8360 C.ar    0  non0       -0.0042
     13  C3        23.1170   21.7520   38.5520 C.ar    0  non0        0.0012
     14  C2        23.0380   23.1480   38.5990 C.ar    0  non0        0.0194
     15  C1        24.1710   23.8930   38.9340 C.ar    0  non0        0.0859
     16  C21       25.3830   23.2580   39.2100 C.ar    0  non0        0.0152
     17  N1        24.0790   25.3290   38.9910 N.4     0  non0       -0.2111
     18  O4        24.5740   25.7950   40.2720 O.3     0  non0       -0.0829
     19  H2        23.1140   25.6030   38.8790 H       0  non0        0.2034
     20  O1        24.8750   25.9080   37.9270 O.3     0  non0       -0.2823
     21  H1        25.7940   25.6520   38.0390 H       0  non0        0.2447
     22  C13       26.0500   24.9510   33.7150 C.ar    0  non0        0.0824
     23  C14       26.5970   24.5410   32.4880 C.ar    0  non0        0.0176
     24  C15       26.1920   25.1500   31.2960 C.ar    0  non0        0.0015
     25  C16       25.2380   26.1710   31.3160 C.ar    0  non0        0.0032
     26  C17       24.6880   26.5760   32.5380 C.ar    0  non0        0.0382
     27  C18       25.0840   25.9720   33.7340 C.ar    0  non0        0.1517
     28  O2        24.5420   26.3630   34.9240 O.3     0  non0       -0.4742
     29  C19       23.1270   26.3330   34.8320 C.3     0  non0        0.2056
     30  C20       22.6170   24.9970   35.3270 C.3     0  non0        0.0512
@<TRIPOS>BOND
     1    24    25   ar
     2    24    23   ar
     3    25    26   ar
     4    23    22   ar
     5    26    27   ar
     6    22    27   ar
     7    22     5    1
     8    27    28    1
     9    29    28    1
    10    29    30    1
    11     5     6    1
    12     5     4    1
    13     6     7    1
    14     4     3    1
    15     7     2    1
    16     3     2    1
    17     2     1   am
    18     1     8    2
    19     1     9    1
    20    20    21    1
    21    20    17    1
    22     9    10    1
    23    13    14   ar
    24    13    12   ar
    25    14    15   ar
    26    12    11   ar
    27    19    17    1
    28    15    17    1
    29    15    16   ar
    30    17    18    1
    31    11    16   ar
    32    11    10    1
@<TRIPOS>MOLECULE
22411586_Intermediate
 30 32 0 0 0
SMALL
GASTEIGER

@<TRIPOS>ATOM
      1  C8        19.9210   29.5360   36.3200 C.2     0  non0        0.2261
      2  N2        18.7370   29.0450   36.8010 N.am    0  non0       -0.2760
      3  C9        18.5740   28.7150   38.1880 C.3     0  non0        0.1148
      4  C10       18.1480   27.2360   38.3220 C.3     0  non0        0.1124
      5  N3        16.9320   26.9460   37.4380 N.pl3   0  non0       -0.3017
      6  C11       17.1710   27.3690   35.9840 C.3     0  non0        0.1124
      7  C12       17.6090   28.8400   35.9410 C.3     0  non0        0.1148
      8  O3        20.8670   29.7000   37.0760 O.2     0  non0       -0.2749
      9  C7        20.0550   29.8640   34.8950 C.3     0  non0        0.0899
     10  C6        20.7310   28.9610   34.0160 C.3     0  non0        0.0360
     11  C5        20.1260   27.7010   33.6740 C.ar    0  non0       -0.0202
     12  C4        19.3200   27.6160   32.5330 C.ar    0  non0       -0.0042
     13  C3        18.7280   26.3950   32.1980 C.ar    0  non0        0.0012
     14  C2        18.9450   25.2660   32.9950 C.ar    0  non0        0.0194
     15  C1        19.7580   25.3640   34.1260 C.ar    0  non0        0.0859
     16  C21       20.3460   26.5810   34.4760 C.ar    0  non0        0.0152
     17  N1        19.9850   24.1940   34.9350 N.4     0  non0       -0.2111
     18  O4        21.4110   23.9850   35.0920 O.3     0  non0       -0.0829
     19  H2        19.5710   23.3930   34.4810 H       0  non0        0.2034
     20  O1        19.3780   24.3820   36.2380 O.3     0  non0       -0.2823
     21  H1        18.4750   24.0570   36.2210 H       0  non0        0.2447
     22  C13       15.7340   26.3470   37.9690 C.ar    0  non0        0.0824
     23  C14       14.7240   27.1510   38.5230 C.ar    0  non0        0.0176
     24  C15       13.5670   26.5680   39.0490 C.ar    0  non0        0.0015
     25  C16       13.4050   25.1800   39.0250 C.ar    0  non0        0.0032
     26  C17       14.4090   24.3790   38.4680 C.ar    0  non0        0.0382
     27  C18       15.5670   24.9520   37.9380 C.ar    0  non0        0.1517
     28  O2        16.5420   24.1700   37.3890 O.3     0  non0       -0.4742
     29  C19       15.9650   23.2990   36.4300 C.3     0  non0        0.2056
     30  C20       16.0650   23.9250   35.0550 C.3     0  non0        0.0512
@<TRIPOS>BOND
     1    13    12   ar
     2    13    14   ar
     3    12    11   ar
     4    14    15   ar
     5    11    10    1
     6    11    16   ar
     7    10     9    1
     8    15    16   ar
     9    15    17    1
    10    19    17    1
    11     9     1    1
    12    17    18    1
    13    17    20    1
    14    30    29    1
    15     7     6    1
    16     7     2    1
    17     6     5    1
    18    21    20    1
    19     1     2   am
    20     1     8    2
    21    29    28    1
    22     2     3    1
    23    28    27    1
    24     5    22    1
    25     5     4    1
    26    27    22   ar
    27    27    26   ar
    28    22    23   ar
    29     3     4    1
    30    26    25   ar
    31    23    24   ar
    32    25    24   ar
@<TRIPOS>MOLECULE
49668543_Intermediate
 35 37 0 0 0
SMALL
GASTEIGER

@<TRIPOS>ATOM
      1  C11       17.5800   23.0000   30.8470 C.ar    0  non0        0.0547
      2  C12       18.2100   21.7640   30.8880 C.ar    0  non0        0.0059
      3  C13       18.9840   21.4180   31.9940 C.ar    0  non0        0.0202
      4  C14       19.1580   22.3140   33.0610 C.ar    0  non0        0.1239
      5  C15       18.5520   23.5800   33.0020 C.ar    0  non0        0.0717
      6  C16       17.7380   23.8970   31.9060 C.ar    0  non0        0.0207
      7  N3        18.6260   24.5510   34.0200 N.am    0  non0       -0.2539
      8  C19       19.6000   24.8060   34.9620 C.2     0  non0        0.2540
      9  C20       20.9890   24.3010   34.7870 C.ar    0  non0        0.0713
     10  C21       22.0490   25.2300   34.8190 C.ar    0  non0        0.0058
     11  C22       23.3710   24.8100   34.6900 C.ar    0  non0        0.0002
     12  C23       23.6570   23.4590   34.5230 C.ar    0  non0        0.0013
     13  C24       22.6150   22.5330   34.4790 C.ar    0  non0        0.0189
     14  C25       21.2780   22.9460   34.6010 C.ar    0  non0        0.1147
     15  S1        20.0190   21.7030   34.5000 S.O2    0  non0        0.0288
     16  O1        20.6520   20.1870   34.2530 O.2     0  non0       -0.1642
     17  O2        19.0480   21.6850   35.8480 O.2     0  non0       -0.1642
     18  O3        19.2360   25.4590   35.9150 O.2     0  non0       -0.2695
     19  C10       16.7580   23.3600   29.7100 C.2     0  non0        0.2459
     20  N2        17.3360   23.5620   28.4840 N.am    0  non0       -0.3009
     21  H22       18.3370   23.4460   28.4270 H       0  non0        0.1497
     22  O4        15.5520   23.4840   29.8450 O.2     0  non0       -0.2701
     23  C9        16.5080   23.9270   27.3390 C.3     0  non0        0.0875
     24  C8        16.6770   25.4080   27.0410 C.3     0  non0       -0.0015
     25  C7        17.9780   25.9030   27.6500 C.3     0  non0       -0.0756
     26  N1        17.7080   27.0390   28.5100 N.4     0  non0        0.3869
     27  H10       18.0470   27.8830   28.0690 H       0  non0       -0.0797
     28  C4        18.3810   26.8570   29.7810 C.3     0  non0       -0.0774
     29  C3        19.6760   26.0910   29.5630 C.3     0  non0       -0.0228
     30  C2        20.4800   26.0750   30.8510 C.3     0  non0       -0.0022
     31  C1        21.2710   24.7890   30.9380 C.3     0  non0       -0.0001
     32  C5        16.2790   27.1500   28.7300 C.3     0  non0       -0.0774
     33  C6        15.9850   27.0330   30.2100 C.3     0  non0       -0.0250
     34  C17       17.4390   25.3440   33.9650 C.3     0  non0        0.0986
     35  C18       17.7880   26.7430   33.5160 C.3     0  non0        0.0237
@<TRIPOS>BOND
     1    24    23    1
     2    24    25    1
     3    23    20    1
     4    25    26    1
     5    27    26    1
     6    21    20    1
     7    20    19   am
     8    26    32    1
     9    26    28    1
    10    32    33    1
    11    29    28    1
    12    29    30    1
    13    19    22    2
    14    19     1    1
    15     1     2   ar
    16     1     6   ar
    17    30    31    1
    18     2     3   ar
    19     6     5   ar
    20     3     4   ar
    21     5     4   ar
    22     5     7    1
    23     4    15    1
    24    35    34    1
    25    34     7    1
    26     7     8   am
    27    16    15    2
    28    13    12   ar
    29    13    14   ar
    30    15    14    1
    31    15    17    2
    32    12    11   ar
    33    14     9   ar
    34    11    10   ar
    35     9    10   ar
    36     9     8    1
    37     8    18    2
@<TRIPOS>MOLECULE
49668543_Intermediate
 35 37 0 0 0
SMALL
GASTEIGER

@<TRIPOS>ATOM
      1  C11       20.7460   22.7120   36.4290 C.ar    0  non0        0.0547
      2  C12       21.7980   22.1510   37.1410 C.ar    0  non0        0.0059
      3  C13       21.6140   21.7860   38.4730 C.ar    0  non0        0.0202
      4  C14       20.3860   22.0020   39.1170 C.ar    0  non0        0.1239
      5  C15       19.3340   22.6050   38.4080 C.ar    0  non0        0.0717
      6  C16       19.5160   22.9240   37.0560 C.ar    0  non0        0.0207
      7  N3        18.0480   22.8450   38.9330 N.am    0  non0       -0.2539
      8  C19       17.6250   23.0880   40.2230 C.2     0  non0        0.2540
      9  C20       18.5780   23.5450   41.2710 C.ar    0  non0        0.0713
     10  C21       18.2940   24.7410   41.9600 C.ar    0  non0        0.0058
     11  C22       19.1360   25.2000   42.9710 C.ar    0  non0        0.0002
     12  C23       20.2750   24.4760   43.3080 C.ar    0  non0        0.0013
     13  C24       20.5710   23.2970   42.6240 C.ar    0  non0        0.0189
     14  C25       19.7330   22.8280   41.5990 C.ar    0  non0        0.1147
     15  S1        20.2060   21.3380   40.7650 S.O2    0  non0        0.0288
     16  O1        21.6330   20.7180   41.3480 O.2     0  non0       -0.1642
     17  O2        19.0240   20.1740   40.8430 O.2     0  non0       -0.1642
     18  O3        16.4450   22.9040   40.4200 O.2     0  non0       -0.2695
     19  C10       20.9220   23.0750   35.0380 C.2     0  non0        0.2459
     20  N2        21.7560   24.1090   34.7010 N.am    0  non0       -0.3009
     21  H22       22.2250   24.5830   35.4590 H       0  non0        0.1497
     22  O4        20.3270   22.4610   34.1670 O.2     0  non0       -0.2701
     23  C9        21.9320   24.4760   33.2990 C.3     0  non0        0.0875
     24  C8        21.1530   25.7480   33.0060 C.3     0  non0       -0.0015
     25  C7        20.8910   26.4940   34.3050 C.3     0  non0       -0.0756
     26  N1        19.4690   26.7420   34.4410 N.4     0  non0        0.3869
     27  H10       19.2840   27.7250   34.2970 H       0  non0       -0.0797
     28  C4        19.0350   26.3600   35.7710 C.3     0  non0       -0.0774
     29  C3        20.1610   26.6070   36.7610 C.3     0  non0       -0.0228
     30  C2        19.6470   26.4060   38.1760 C.3     0  non0       -0.0022
     31  C1        20.7590   25.8680   39.0470 C.3     0  non0       -0.0001
     32  C5        18.7450   25.9640   33.4540 C.3     0  non0       -0.0774
     33  C6        17.7940   25.0180   34.1530 C.3     0  non0       -0.0250
     34  C17       17.1130   22.8080   37.8540 C.3     0  non0        0.0986
     35  C18       16.5560   24.1920   37.6210 C.3     0  non0        0.0237
@<TRIPOS>BOND
     1    24    23    1
     2    24    25    1
     3    23    20    1
     4    32    33    1
     5    32    26    1
     6    22    19    2
     7    27    26    1
     8    25    26    1
     9    26    28    1
    10    20    19   am
    11    20    21    1
    12    19     1    1
    13    28    29    1
    14     1     6   ar
    15     1     2   ar
    16    29    30    1
    17     6     5   ar
    18     2     3   ar
    19    35    34    1
    20    34     7    1
    21    30    31    1
    22     5     7    1
    23     5     4   ar
    24     3     4   ar
    25     7     8   am
    26     4    15    1
    27     8    18    2
    28     8     9    1
    29    15    17    2
    30    15    16    2
    31    15    14    1
    32     9    14   ar
    33     9    10   ar
    34    14    13   ar
    35    10    11   ar
    36    13    12   ar
    37    11    12   ar
@<TRIPOS>MOLECULE
49668543_Intermediate
 35 37 0 0 0
SMALL
GASTEIGER

@<TRIPOS>ATOM
      1  C11       19.1330   26.2220   37.4010 C.ar    0  non0        0.0547
      2  C12       18.8080   27.0500   38.4670 C.ar    0  non0        0.0059
      3  C13       19.2090   28.3850   38.4520 C.ar    0  non0        0.0202
      4  C14       19.9610   28.9000   37.3850 C.ar    0  non0        0.1239
      5  C15       20.3220   28.0530   36.3250 C.ar    0  non0        0.0717
      6  C16       19.8720   26.7250   36.3280 C.ar    0  non0        0.0207
      7  N3        21.0450   28.4590   35.1860 N.am    0  non0       -0.2539
      8  C19       21.9820   29.4550   35.0130 C.2     0  non0        0.2540
      9  C20       22.7030   30.0410   36.1760 C.ar    0  non0        0.0713
     10  C21       24.1120   30.0180   36.1730 C.ar    0  non0        0.0058
     11  C22       24.8380   30.5800   37.2210 C.ar    0  non0        0.0002
     12  C23       24.1710   31.1690   38.2890 C.ar    0  non0        0.0013
     13  C24       22.7760   31.1870   38.3080 C.ar    0  non0        0.0189
     14  C25       22.0340   30.6180   37.2600 C.ar    0  non0        0.1147
     15  S1        20.2670   30.6590   37.3840 S.O2    0  non0        0.0288
     16  O1        19.7530   31.3830   38.7880 O.2     0  non0       -0.1642
     17  O2        19.5650   31.4150   36.0830 O.2     0  non0       -0.1642
     18  O3        22.1640   29.7980   33.8660 O.2     0  non0       -0.2695
     19  C10       18.7030   24.8390   37.3980 C.2     0  non0        0.2459
     20  N2        19.2280   23.9570   38.3060 N.am    0  non0       -0.3009
     21  H22       19.9090   24.3230   38.9560 H       0  non0        0.1497
     22  O4        17.8740   24.4590   36.5870 O.2     0  non0       -0.2701
     23  C9        18.7970   22.5620   38.3020 C.3     0  non0        0.0875
     24  C8        19.8740   21.7000   37.6650 C.3     0  non0       -0.0015
     25  C7        21.2080   22.4260   37.7260 C.3     0  non0       -0.0756
     26  N1        21.7730   22.5100   36.3920 N.4     0  non0        0.3869
     27  H10       22.5660   21.8870   36.3230 H       0  non0       -0.0797
     28  C4        22.2040   23.8700   36.1330 C.3     0  non0       -0.0774
     29  C3        22.6900   24.5020   37.4270 C.3     0  non0       -0.0228
     30  C2        23.3420   25.8400   37.1260 C.3     0  non0       -0.0022
     31  C1        23.0960   26.7930   38.2740 C.3     0  non0       -0.0001
     32  C5        20.7710   22.1250   35.4170 C.3     0  non0       -0.0774
     33  C6        20.5250   23.2760   34.4660 C.3     0  non0       -0.0250
     34  C17       20.6580   27.6240   34.0930 C.3     0  non0        0.0986
     35  C18       21.8170   26.7390   33.6980 C.3     0  non0        0.0237
@<TRIPOS>BOND
     1    35    34    1
     2    18     8    2
     3    34     7    1
     4    33    32    1
     5     8     7   am
     6     8     9    1
     7     7     5    1
     8    32    26    1
     9    17    15    2
    10    28    26    1
    11    28    29    1
    12    10     9   ar
    13    10    11   ar
    14     9    14   ar
    15    27    26    1
    16     5     6   ar
    17     5     4   ar
    18     6     1   ar
    19    26    25    1
    20    22    19    2
    21    30    29    1
    22    30    31    1
    23    11    12   ar
    24    14    15    1
    25    14    13   ar
    26    15     4    1
    27    15    16    2
    28     4     3   ar
    29    19     1    1
    30    19    20   am
    31     1     2   ar
    32    24    25    1
    33    24    23    1
    34    12    13   ar
    35    23    20    1
    36    20    21    1
    37     3     2   ar
@<TRIPOS>MOLECULE
4265629_Intermediate
 27 29 0 0 0
SMALL
GASTEIGER

@<TRIPOS>ATOM
      1  N1        26.9710   29.9480   32.2900 N.ar    0  non0       -0.2133
      2  C3        26.6080   28.9940   31.3440 C.ar    0  non0        0.1838
      3  C4        26.1080   27.7310   31.4790 C.ar    0  non0        0.0389
      4  C5        25.8180   26.9580   30.3420 C.ar    0  non0        0.0063
      5  C6        25.2950   25.6680   30.4810 C.ar    0  non0        0.0384
      6  C7        25.0600   25.1370   31.7520 C.ar    0  non0        0.1575
      7  C8        25.3550   25.9050   32.8840 C.ar    0  non0        0.1608
      8  C9        25.8790   27.1920   32.7560 C.ar    0  non0        0.0265
      9  N3        26.8130   29.4750   30.1370 N.ar    0  non0       -0.1081
     10  N4        27.3810   30.7010   30.3080 N.ar    0  non0       -0.0227
     11  N5        27.5070   30.9910   31.5920 N.ar    0  non0       -0.0429
     12  S1        25.0570   25.2300   34.4820 S.O2    0  non0        0.0957
     13  O2        25.8080   26.1690   35.6280 O.2     0  non0       -0.1482
     14  O3        25.6600   23.6830   34.5510 O.2     0  non0       -0.1482
     15  N2        23.4310   25.2010   34.7740 N.pl3   0  non0       -0.0965
     16  C10       22.5890   26.2780   34.2930 C.ar    0  non0        0.0912
     17  C11       21.6870   26.0590   33.2380 C.ar    0  non0        0.0212
     18  C12       20.8830   27.1030   32.7660 C.ar    0  non0        0.0383
     19  C13       20.9690   28.3710   33.3430 C.ar    0  non0        0.1388
     20  C14       21.8630   28.5890   34.3980 C.ar    0  non0        0.0383
     21  C15       22.6680   27.5540   34.8760 C.ar    0  non0        0.0212
     22  O1        20.1890   29.3950   32.8870 O.3     0  non0       -0.4714
     23  C16       19.8300   29.1500   31.5360 C.3     0  non0        0.2525
     24  O4        24.5470   23.8790   31.8940 O.3     0  non0       -0.4701
     25  C17       23.4840   23.6950   30.9730 C.3     0  non0        0.2525
     26  C2        26.8360   29.9010   33.7240 C.3     0  non0        0.1310
     27  C1        25.5720   30.6250   34.1350 C.3     0  non0        0.0285
@<TRIPOS>BOND
     1     9    10   ar
     2     9     2   ar
     3    10    11   ar
     4     4     5   ar
     5     4     3   ar
     6     5     6   ar
     7    25    24    1
     8     2     3    1
     9     2     1   ar
    10     3     8   ar
    11    23    22    1
    12    11     1   ar
    13     6    24    1
    14     6     7   ar
    15     1    26    1
    16     8     7   ar
    17    18    17   ar
    18    18    19   ar
    19     7    12    1
    20    22    19    1
    21    17    16   ar
    22    19    20   ar
    23    26    27    1
    24    16    15    1
    25    16    21   ar
    26    20    21   ar
    27    12    14    2
    28    12    15    1
    29    12    13    2
@<TRIPOS>MOLECULE
4265629_Intermediate
 27 29 0 0 0
SMALL
GASTEIGER

@<TRIPOS>ATOM
      1  N1        25.6270   20.6130   33.9590 N.ar    0  non0       -0.2133
      2  C3        24.9520   20.2580   32.7950 C.ar    0  non0        0.1838
      3  C4        23.7170   20.6000   32.3260 C.ar    0  non0        0.0389
      4  C5        23.2610   20.0970   31.0960 C.ar    0  non0        0.0063
      5  C6        21.9990   20.4570   30.6100 C.ar    0  non0        0.0384
      6  C7        21.1810   21.3160   31.3480 C.ar    0  non0        0.1575
      7  C8        21.6310   21.8110   32.5760 C.ar    0  non0        0.1608
      8  C9        22.8880   21.4570   33.0700 C.ar    0  non0        0.0265
      9  N3        25.7080   19.4550   32.0780 N.ar    0  non0       -0.1081
     10  N4        26.8300   19.2290   32.8170 N.ar    0  non0       -0.0227
     11  N5        26.7880   19.8950   33.9590 N.ar    0  non0       -0.0429
     12  S1        20.5950   22.8920   33.5010 S.O2    0  non0        0.0957
     13  O2        21.1900   23.0440   35.0440 O.2     0  non0       -0.1482
     14  O3        19.0560   22.2690   33.5590 O.2     0  non0       -0.1482
     15  N2        20.5610   24.3760   32.7750 N.pl3   0  non0       -0.0965
     16  C10       21.7570   24.9060   32.1500 C.ar    0  non0        0.0912
     17  C11       21.8410   25.0090   30.7520 C.ar    0  non0        0.0212
     18  C12       23.0010   25.5080   30.1470 C.ar    0  non0        0.0383
     19  C13       24.0840   25.9100   30.9330 C.ar    0  non0        0.1388
     20  C14       23.9980   25.8130   32.3250 C.ar    0  non0        0.0383
     21  C15       22.8460   25.3170   32.9370 C.ar    0  non0        0.0212
     22  O1        25.2190   26.3970   30.3500 O.3     0  non0       -0.4714
     23  C16       25.3400   25.8720   29.0370 C.3     0  non0        0.2525
     24  O4        19.9480   21.6730   30.8780 O.3     0  non0       -0.4701
     25  C17       20.0410   21.9880   29.4980 C.3     0  non0        0.2525
     26  C2        25.2320   21.5380   34.9910 C.3     0  non0        0.1310
     27  C1        25.8860   22.8810   34.7410 C.3     0  non0        0.0285
@<TRIPOS>BOND
     1    23    22    1
     2    25    24    1
     3    18    17   ar
     4    18    19   ar
     5    22    19    1
     6     5     4   ar
     7     5     6   ar
     8    17    16   ar
     9    24     6    1
    10    19    20   ar
    11     4     3   ar
    12     6     7   ar
    13     9     2   ar
    14     9    10   ar
    15    16    15    1
    16    16    21   ar
    17    20    21   ar
    18     3     2    1
    19     3     8   ar
    20     7     8   ar
    21     7    12    1
    22    15    12    1
    23     2     1   ar
    24    10    11   ar
    25    12    14    2
    26    12    13    2
    27     1    11   ar
    28     1    26    1
    29    27    26    1
@<TRIPOS>MOLECULE
4265629_Intermediate
 27 29 0 0 0
SMALL
GASTEIGER

@<TRIPOS>ATOM
      1  N1        22.3520   30.2900   31.6680 N.ar    0  non0       -0.2133
      2  C3        20.9640   30.3490   31.5800 C.ar    0  non0        0.1838
      3  C4        20.0490   29.4570   31.1010 C.ar    0  non0        0.0389
      4  C5        18.6780   29.7640   31.1260 C.ar    0  non0        0.0063
      5  C6        17.7400   28.8440   30.6450 C.ar    0  non0        0.0384
      6  C7        18.1600   27.6150   30.1320 C.ar    0  non0        0.1575
      7  C8        19.5260   27.3120   30.0990 C.ar    0  non0        0.1608
      8  C9        20.4690   28.2240   30.5750 C.ar    0  non0        0.0265
      9  N3        20.5440   31.4970   32.0660 N.ar    0  non0       -0.1081
     10  N4        21.6610   32.2050   32.3900 N.ar    0  non0       -0.0227
     11  N5        22.7550   31.5070   32.1350 N.ar    0  non0       -0.0429
     12  S1        20.0480   25.7620   29.4500 S.O2    0  non0        0.0957
     13  O2        21.6890   25.7940   29.1940 O.2     0  non0       -0.1482
     14  O3        19.2680   25.4720   28.0120 O.2     0  non0       -0.1482
     15  N2        19.6820   24.5630   30.5260 N.pl3   0  non0       -0.0965
     16  C10       19.7940   24.8070   31.9510 C.ar    0  non0        0.0912
     17  C11       18.6410   24.9040   32.7470 C.ar    0  non0        0.0212
     18  C12       18.7480   25.1530   34.1210 C.ar    0  non0        0.0383
     19  C13       20.0050   25.3050   34.7100 C.ar    0  non0        0.1388
     20  C14       21.1540   25.2030   33.9180 C.ar    0  non0        0.0383
     21  C15       21.0570   24.9550   32.5480 C.ar    0  non0        0.0212
     22  O1        20.1170   25.5490   36.0490 O.3     0  non0       -0.4714
     23  C16       18.9360   26.1820   36.5150 C.3     0  non0        0.2525
     24  O4        17.2490   26.7120   29.6630 O.3     0  non0       -0.4701
     25  C17       16.1550   26.6330   30.5620 C.3     0  non0        0.2525
     26  C2        23.2350   29.1980   31.3450 C.3     0  non0        0.1310
     27  C1        23.5720   28.4330   32.6070 C.3     0  non0        0.0285
@<TRIPOS>BOND
     1    14    12    2
     2    13    12    2
     3    12     7    1
     4    12    15    1
     5    24     6    1
     6    24    25    1
     7     7     6   ar
     8     7     8   ar
     9     6     5   ar
    10    15    16    1
    11     8     3   ar
    12     5     4   ar
    13     3     4   ar
    14     3     2    1
    15    26     1    1
    16    26    27    1
    17     2     1   ar
    18     2     9   ar
    19     1    11   ar
    20    16    21   ar
    21    16    17   ar
    22     9    10   ar
    23    11    10   ar
    24    21    20   ar
    25    17    18   ar
    26    20    19   ar
    27    18    19   ar
    28    19    22    1
    29    22    23    1
@<TRIPOS>MOLECULE
24376692_Intermediate
 27 30 0 0 0
SMALL
GASTEIGER

@<TRIPOS>ATOM
      1  C1        19.1900   28.0270   32.4610 C.3     0  non0        0.0089
      2  C2        18.4330   27.9530   31.1580 C.3     0  non0        0.0404
      3  C3        17.2230   27.0610   31.3390 C.3     0  non0        0.0268
      4  C4        16.3500   27.1500   30.1010 C.3     0  non0        0.0655
      5  C5        17.1550   26.6880   28.9130 C.3     0  non0        0.0203
      6  C6        15.1600   26.2420   30.2860 C.3     0  non0        0.0203
      7  N1        15.8650   28.5110   29.8360 N.am    0  non0       -0.2561
      8  C7        14.6150   28.7350   29.3520 C.2     0  non0        0.2873
      9  O2        13.8680   27.7940   29.1270 O.2     0  non0       -0.2662
     10  C12       16.7800   29.5950   30.1160 C.ar    0  non0        0.0504
     11  C13       16.5080   30.9200   29.7410 C.ar    0  non0        0.0146
     12  C14       17.4160   31.9580   29.9890 C.ar    0  non0        0.0013
     13  C15       18.6270   31.6910   30.6100 C.ar    0  non0       -0.0002
     14  C16       18.9310   30.3860   30.9810 C.ar    0  non0       -0.0027
     15  C17       18.0180   29.3390   30.7480 C.ar    0  non0       -0.0053
     16  C18       19.3100   27.3750   30.1070 C.ar    0  non0       -0.0189
     17  C19       19.7790   26.0550   30.2210 C.ar    0  non0       -0.0031
     18  C20       20.6140   25.5150   29.2370 C.ar    0  non0        0.0111
     19  C21       20.9860   26.2850   28.1320 C.ar    0  non0        0.0577
     20  C22       20.5150   27.5960   28.0150 C.ar    0  non0        0.0111
     21 Cl         22.0380   25.6140   26.8940 Cl      0  non0       -0.0822
     22  C23       19.6780   28.1430   28.9900 C.ar    0  non0       -0.0031
     23  C8        14.1770   30.0560   29.1090 C.ar    0  non0        0.1990
     24  C9        13.5430   30.7850   30.0190 C.ar    0  non0        0.0455
     25  C10       13.2830   32.0180   29.3740 C.ar    0  non0        0.0440
     26  C11       13.8130   31.9240   28.0980 C.ar    0  non0        0.1798
     27  O1        14.3680   30.6830   27.9340 O.2     0  non0       -0.4458
@<TRIPOS>BOND
     1    21    19    1
     2    27    26   ar
     3    27    23   ar
     4    20    19   ar
     5    20    22   ar
     6    26    25   ar
     7    19    18   ar
     8     5     4    1
     9    22    16   ar
    10    23     8    1
    11    23    24   ar
    12     9     8    2
    13    18    17   ar
    14     8     7   am
    15    25    24   ar
    16    11    12   ar
    17    11    10   ar
    18     7     4    1
    19     7    10    1
    20    12    13   ar
    21     4     6    1
    22     4     3    1
    23    16    17   ar
    24    16     2    1
    25    10    15   ar
    26    13    14   ar
    27    15    14   ar
    28    15     2    1
    29     2     3    1
    30     2     1    1
@<TRIPOS>MOLECULE
24376692_Intermediate
 27 30 0 0 0
SMALL
GASTEIGER

@<TRIPOS>ATOM
      1  C1        17.9380   29.5670   28.4210 C.3     0  non0        0.0089
      2  C2        16.9530   29.7810   29.5420 C.3     0  non0        0.0404
      3  C3        16.0900   30.9830   29.2220 C.3     0  non0        0.0268
      4  C4        14.9680   31.0760   30.2380 C.3     0  non0        0.0655
      5  C5        15.5750   31.2320   31.6100 C.3     0  non0        0.0203
      6  C6        14.1300   32.2880   29.9190 C.3     0  non0        0.0203
      7  N1        14.0980   29.8930   30.2430 N.am    0  non0       -0.2561
      8  C7        12.7570   30.0010   30.4350 C.2     0  non0        0.2873
      9  O2        12.2510   31.1000   30.6090 O.2     0  non0       -0.2662
     10  C12       14.7370   28.6130   30.0340 C.ar    0  non0        0.0504
     11  C13       14.0520   27.3980   30.1950 C.ar    0  non0        0.0146
     12  C14       14.6900   26.1630   30.0200 C.ar    0  non0        0.0013
     13  C15       16.0370   26.1140   29.6930 C.ar    0  non0       -0.0002
     14  C16       16.7460   27.3000   29.5410 C.ar    0  non0       -0.0027
     15  C17       16.1090   28.5460   29.7010 C.ar    0  non0       -0.0053
     16  C18       17.6890   30.0340   30.8080 C.ar    0  non0       -0.0189
     17  C19       18.5020   31.1730   30.9400 C.ar    0  non0       -0.0031
     18  C20       19.2040   31.4050   32.1270 C.ar    0  non0        0.0111
     19  C21       19.1000   30.5070   33.1930 C.ar    0  non0        0.0577
     20  C22       18.2860   29.3770   33.0640 C.ar    0  non0        0.0111
     21 Cl         19.9810   30.7900   34.6860 Cl      0  non0       -0.0822
     22  C23       17.5780   29.1380   31.8840 C.ar    0  non0       -0.0031
     23  C8        11.9470   28.8430   30.4340 C.ar    0  non0        0.1990
     24  C9        11.3670   28.3710   29.3380 C.ar    0  non0        0.0455
     25  C10       10.6560   27.2260   29.7730 C.ar    0  non0        0.0440
     26  C11       10.8890   27.1000   31.1320 C.ar    0  non0        0.1798
     27  O1        11.6970   28.1260   31.5440 O.2     0  non0       -0.4458
@<TRIPOS>BOND
     1     1     2    1
     2     3     2    1
     3     3     4    1
     4    24    25   ar
     5    24    23   ar
     6    14    13   ar
     7    14    15   ar
     8     2    15    1
     9     2    16    1
    10    13    12   ar
    11    15    10   ar
    12    25    26   ar
    13     6     4    1
    14    12    11   ar
    15    10    11   ar
    16    10     7    1
    17     4     7    1
    18     4     5    1
    19     7     8   am
    20    23     8    1
    21    23    27   ar
    22     8     9    2
    23    16    17   ar
    24    16    22   ar
    25    17    18   ar
    26    26    27   ar
    27    22    20   ar
    28    18    19   ar
    29    20    19   ar
    30    19    21    1
@<TRIPOS>MOLECULE
24376692_Intermediate
 27 30 0 0 0
SMALL
GASTEIGER

@<TRIPOS>ATOM
      1  C1        11.3100   26.0640   30.9280 C.3     0  non0        0.0089
      2  C2        12.6680   26.5960   31.3110 C.3     0  non0        0.0404
      3  C3        12.7870   26.6110   32.8200 C.3     0  non0        0.0268
      4  C4        14.2160   26.9450   33.2030 C.3     0  non0        0.0655
      5  C5        14.5570   28.3050   32.6480 C.3     0  non0        0.0203
      6  C6        14.3150   26.9780   34.7080 C.3     0  non0        0.0203
      7  N1        15.1910   25.9730   32.6910 N.am    0  non0       -0.2561
      8  C7        16.2770   25.6070   33.4210 C.2     0  non0        0.2873
      9  O2        16.4590   26.0890   34.5290 O.2     0  non0       -0.2662
     10  C12       14.9370   25.4280   31.3760 C.ar    0  non0        0.0504
     11  C13       15.8770   24.6330   30.7000 C.ar    0  non0        0.0146
     12  C14       15.6330   24.1360   29.4140 C.ar    0  non0        0.0013
     13  C15       14.4440   24.4340   28.7650 C.ar    0  non0       -0.0002
     14  C16       13.4990   25.2300   29.4020 C.ar    0  non0       -0.0027
     15  C17       13.7300   25.7220   30.7010 C.ar    0  non0       -0.0053
     16  C18       12.8210   27.9810   30.7970 C.ar    0  non0       -0.0189
     17  C19       11.9880   29.0100   31.2690 C.ar    0  non0       -0.0031
     18  C20       12.1250   30.3110   30.7760 C.ar    0  non0        0.0111
     19  C21       13.0940   30.5990   29.8110 C.ar    0  non0        0.0577
     20  C22       13.9270   29.5770   29.3450 C.ar    0  non0        0.0111
     21 Cl         13.2690   32.2310   29.1850 Cl      0  non0       -0.0822
     22  C23       13.8010   28.2750   29.8330 C.ar    0  non0       -0.0031
     23  C8        17.1950   24.6680   32.9000 C.ar    0  non0        0.1990
     24  C9        17.0880   23.3620   33.1090 C.ar    0  non0        0.0455
     25  C10       18.1960   22.7980   32.4310 C.ar    0  non0        0.0440
     26  C11       18.8840   23.8460   31.8430 C.ar    0  non0        0.1798
     27  O1        18.2530   25.0230   32.1490 O.2     0  non0       -0.4458
@<TRIPOS>BOND
     1    13    14   ar
     2    13    12   ar
     3    21    19    1
     4    20    19   ar
     5    20    22   ar
     6    14    15   ar
     7    12    11   ar
     8    19    18   ar
     9    22    16   ar
    10    11    10   ar
    11    15     2    1
    12    15    10   ar
    13    18    17   ar
    14    16    17   ar
    15    16     2    1
    16     1     2    1
    17     2     3    1
    18    10     7    1
    19    26    27   ar
    20    26    25   ar
    21    27    23   ar
    22    25    24   ar
    23     5     4    1
    24     7     4    1
    25     7     8   am
    26     3     4    1
    27    23    24   ar
    28    23     8    1
    29     4     6    1
    30     8     9    2
@<TRIPOS>MOLECULE
124895953_Intermediate
 26 28 0 0 0
SMALL
GASTEIGER

@<TRIPOS>ATOM
      1  C4        17.5290   30.4740   32.2020 C.2     0  non0        0.0421
      2  C5        18.2190   31.6130   32.7250 C.2     0  non0        0.0136
      3  N1        18.2370   29.2920   31.9170 N.am    0  non0       -0.2774
      4  C3        17.4110   28.4180   31.1050 C.3     0  non0        0.1050
      5  C21       18.5690   28.6420   33.1200 C.2     0  non0        0.3913
      6  O1        19.4230   27.7680   33.1270 O.2     0  non0       -0.2276
      7  C2        19.4520   29.6190   31.1930 C.3     0  non0        0.0847
      8  C1        19.3080   29.1990   29.7470 C.3     0  non0        0.0222
      9  O2        17.9410   28.9860   34.2710 O.3     0  non0       -0.4669
     10  H21       17.8730   29.9420   34.3260 H       0  non0        0.2967
     11  C12       16.1090   30.5370   31.9680 C.ar    0  non0        0.0155
     12  C13       15.2270   30.0220   32.9090 C.ar    0  non0        0.0219
     13  C14       13.8690   30.1040   32.6550 C.ar    0  non0        0.0989
     14  N2        13.3750   30.6630   31.5260 N.ar    0  non0       -0.2438
     15  C15       14.2220   31.1500   30.5960 C.ar    0  non0        0.0813
     16  C16       13.7500   31.7200   29.4090 C.ar    0  non0        0.0191
     17  C20       15.6190   31.1160   30.7920 C.ar    0  non0        0.0189
     18  C17       14.6180   32.2880   28.4680 C.ar    0  non0        0.0015
     19  C18       15.9910   32.2510   28.6750 C.ar    0  non0        0.0001
     20  C19       16.4910   31.6580   29.8320 C.ar    0  non0        0.0015
     21  C6        19.6460   31.5500   32.9590 C.ar    0  non0        0.0012
     22  C7        20.5470   31.9460   31.9570 C.ar    0  non0        0.0000
     23  C8        21.9270   31.8750   32.1790 C.ar    0  non0        0.0000
     24  C9        22.4190   31.4120   33.4030 C.ar    0  non0        0.0000
     25  C10       21.5210   31.0220   34.4030 C.ar    0  non0        0.0000
     26  C11       20.1440   31.0920   34.1910 C.ar    0  non0        0.0000
@<TRIPOS>BOND
     1    18    19   ar
     2    18    16   ar
     3    19    20   ar
     4    16    15   ar
     5     8     7    1
     6    20    17   ar
     7    15    17   ar
     8    15    14   ar
     9    17    11   ar
    10     4     3    1
    11     7     3    1
    12    14    13   ar
    13     3     1    1
    14     3     5    1
    15    22    23   ar
    16    22    21   ar
    17    11     1    1
    18    11    12   ar
    19    23    24   ar
    20     1     2    2
    21    13    12   ar
    22     2    21    1
    23    21    26   ar
    24     5     6    2
    25     5     9    1
    26    24    25   ar
    27    26    25   ar
    28     9    10    1
@<TRIPOS>MOLECULE
124895953_Intermediate
 26 28 0 0 0
SMALL
GASTEIGER

@<TRIPOS>ATOM
      1  C4        15.9030   27.1840   30.2750 C.2     0  non0        0.0421
      2  C5        16.1330   28.2830   31.1610 C.2     0  non0        0.0136
      3  N1        15.5430   27.4220   28.9350 N.am    0  non0       -0.2774
      4  C3        15.0510   26.1940   28.3410 C.3     0  non0        0.1050
      5  C21       16.6690   27.8720   28.2210 C.2     0  non0        0.3913
      6  O1        16.5280   28.4110   27.1340 O.2     0  non0       -0.2276
      7  C2        14.5040   28.4340   28.8860 C.3     0  non0        0.0847
      8  C1        13.1850   27.7870   28.5240 C.3     0  non0        0.0222
      9  O2        17.9110   27.7070   28.7390 O.3     0  non0       -0.4669
     10  H21       18.0800   28.3920   29.3900 H       0  non0        0.2967
     11  C12       16.0390   25.8320   30.7540 C.ar    0  non0        0.0155
     12  C13       17.2180   25.1330   30.5310 C.ar    0  non0        0.0219
     13  C14       17.3170   23.8380   31.0110 C.ar    0  non0        0.0989
     14  N2        16.3090   23.2340   31.6810 N.ar    0  non0       -0.2438
     15  C15       15.1530   23.8950   31.8870 C.ar    0  non0        0.0813
     16  C16       14.0820   23.2990   32.5610 C.ar    0  non0        0.0191
     17  C20       14.9830   25.2240   31.4420 C.ar    0  non0        0.0189
     18  C17       12.9020   24.0000   32.8390 C.ar    0  non0        0.0015
     19  C18       12.7490   25.3090   32.3980 C.ar    0  non0        0.0001
     20  C19       13.7850   25.9170   31.6930 C.ar    0  non0        0.0015
     21  C6        15.9950   29.6410   30.6790 C.ar    0  non0        0.0012
     22  C7        17.0920   30.3070   30.1080 C.ar    0  non0        0.0000
     23  C8        16.9630   31.6230   29.6530 C.ar    0  non0        0.0000
     24  C9        15.7360   32.2870   29.7610 C.ar    0  non0        0.0000
     25  C10       14.6420   31.6230   30.3260 C.ar    0  non0        0.0000
     26  C11       14.7620   30.3090   30.7800 C.ar    0  non0        0.0000
@<TRIPOS>BOND
     1     6     5    2
     2     5     9    1
     3     5     3    1
     4     4     3    1
     5     8     7    1
     6     9    10    1
     7     7     3    1
     8     3     1    1
     9    23    24   ar
    10    23    22   ar
    11    24    25   ar
    12    22    21   ar
    13     1    11    1
    14     1     2    2
    15    25    26   ar
    16    12    11   ar
    17    12    13   ar
    18    21    26   ar
    19    21     2    1
    20    11    17   ar
    21    13    14   ar
    22    17    20   ar
    23    17    15   ar
    24    14    15   ar
    25    20    19   ar
    26    15    16   ar
    27    19    18   ar
    28    16    18   ar
@<TRIPOS>MOLECULE
124895953_Intermediate
 26 28 0 0 0
SMALL
GASTEIGER

@<TRIPOS>ATOM
      1  C4        14.0320   27.5080   30.6800 C.2     0  non0        0.0421
      2  C5        15.1500   27.1860   31.5120 C.2     0  non0        0.0136
      3  N1        13.6160   26.6090   29.6800 N.am    0  non0       -0.2774
      4  C3        12.7060   27.2820   28.7730 C.3     0  non0        0.1050
      5  C21       12.9620   25.5150   30.2760 C.2     0  non0        0.3913
      6  O1        12.7810   24.4890   29.6380 O.2     0  non0       -0.2276
      7  C2        14.7740   26.1370   28.9430 C.3     0  non0        0.0847
      8  C1        14.7800   26.7540   27.5620 C.3     0  non0        0.0222
      9  O2        12.5330   25.6000   31.5600 O.3     0  non0       -0.4669
     10  H21       12.8560   24.8450   32.0560 H       0  non0        0.2967
     11  C12       13.3320   28.7530   30.8650 C.ar    0  non0        0.0155
     12  C13       12.1600   28.7860   31.6110 C.ar    0  non0        0.0219
     13  C14       11.5160   30.0010   31.7730 C.ar    0  non0        0.0989
     14  N2        11.9840   31.1480   31.2310 N.ar    0  non0       -0.2438
     15  C15       13.1100   31.1260   30.4890 C.ar    0  non0        0.0813
     16  C16       13.6150   32.2890   29.8990 C.ar    0  non0        0.0191
     17  C20       13.8300   29.9290   30.2920 C.ar    0  non0        0.0189
     18  C17       14.8200   32.2880   29.1830 C.ar    0  non0        0.0015
     19  C18       15.5210   31.1030   28.9990 C.ar    0  non0        0.0001
     20  C19       15.0220   29.9240   29.5460 C.ar    0  non0        0.0015
     21  C6        15.8550   25.9350   31.3260 C.ar    0  non0        0.0012
     22  C7        15.4500   24.7830   32.0190 C.ar    0  non0        0.0000
     23  C8        16.1380   23.5770   31.8480 C.ar    0  non0        0.0000
     24  C9        17.2330   23.5090   30.9810 C.ar    0  non0        0.0000
     25  C10       17.6320   24.6560   30.2860 C.ar    0  non0        0.0000
     26  C11       16.9510   25.8610   30.4490 C.ar    0  non0        0.0000
@<TRIPOS>BOND
     1     8     7    1
     2     4     3    1
     3     7     3    1
     4    19    18   ar
     5    19    20   ar
     6    18    16   ar
     7    20    17   ar
     8     6     5    2
     9     3     5    1
    10     3     1    1
    11    16    15   ar
    12     5     9    1
    13    25    26   ar
    14    25    24   ar
    15    17    15   ar
    16    17    11   ar
    17    26    21   ar
    18    15    14   ar
    19     1    11    1
    20     1     2    2
    21    11    12   ar
    22    24    23   ar
    23    14    13   ar
    24    21     2    1
    25    21    22   ar
    26     9    10    1
    27    12    13   ar
    28    23    22   ar
@<TRIPOS>MOLECULE
56318392_Intermediate
 34 38 0 0 0
SMALL
GASTEIGER

@<TRIPOS>ATOM
      1  N1        22.5270   23.6680   33.6270 N.am    0  non0       -0.2693
      2  C13       22.9680   24.9610   33.7130 C.2     0  non0        0.2494
      3  O5        24.1620   25.1940   33.8320 O.2     0  non0       -0.2699
      4  C3        23.4550   22.5980   33.6730 C.3     0  non0        0.0762
      5  C2        23.7780   22.0580   32.5810 C.3     0  non0        0.0215
      6  C1        22.9920   21.4210   33.7050 C.3     0  non0        0.0215
      7  C4        21.1240   23.3970   33.4870 C.3     0  non0        0.1812
      8  C5        20.4560   23.6350   34.7580 C.ar    0  non0        0.2465
      9  N2        20.7650   23.2100   35.9700 N.ar    0  non0       -0.1096
     10  N3        19.8170   23.7110   36.8340 N.ar    0  non0       -0.1071
     11  C6        18.9790   24.4140   36.1040 C.ar    0  non0        0.2505
     12  O1        19.3190   24.4120   34.7810 O.2     0  non0       -0.4177
     13  C7        17.8710   25.1050   36.5030 C.ar    0  non0        0.0657
     14  C8        17.9720   26.4580   36.8670 C.ar    0  non0        0.0056
     15  C9        16.8370   27.1610   37.2870 C.ar    0  non0        0.0002
     16  C10       15.5950   26.5240   37.3430 C.ar    0  non0        0.0009
     17  C11       15.4940   25.1790   36.9740 C.ar    0  non0        0.0115
     18  C12       16.6200   24.4680   36.5510 C.ar    0  non0        0.0622
     19 Cl         16.4910   22.7820   36.0800 Cl      0  non0       -0.0821
     20  C14       22.0140   26.0610   33.6650 C.ar    0  non0        0.0549
     21  C15       21.7340   26.8080   34.8210 C.ar    0  non0        0.0046
     22  C16       20.8090   27.8580   34.7770 C.ar    0  non0        0.0015
     23  C17       20.1590   28.1720   33.5800 C.ar    0  non0        0.0199
     24  C18       20.4440   27.4320   32.4270 C.ar    0  non0        0.1223
     25  C19       21.3660   26.3850   32.4600 C.ar    0  non0        0.0244
     26  S1        19.6220   27.8350   30.9240 S.O2    0  non0        0.0634
     27  O3        20.7450   28.2520   29.7740 O.2     0  non0       -0.1528
     28  O4        18.5910   29.1130   31.1800 O.2     0  non0       -0.1528
     29  N4        18.7580   26.5280   30.4000 N.3     0  non0       -0.1504
     30  C20       18.0990   26.8730   29.0890 C.3     0  non0        0.1279
     31  C21       17.1670   25.7280   28.6730 C.3     0  non0        0.1613
     32  O2        16.1980   25.4630   29.6950 O.3     0  non0       -0.3507
     33  C22       16.8280   25.0550   30.9150 C.3     0  non0        0.1613
     34  C23       17.7440   26.1590   31.4550 C.3     0  non0        0.1279
@<TRIPOS>BOND
     1    31    30    1
     2    31    32    1
     3    30    29    1
     4    32    33    1
     5    27    26    2
     6    29    26    1
     7    29    34    1
     8    33    34    1
     9    26    28    2
    10    26    24    1
    11    24    25   ar
    12    24    23   ar
    13    25    20   ar
    14     5     4    1
    15     5     6    1
    16     7     1    1
    17     7     8    1
    18    23    22   ar
    19     1     4    1
    20     1     2   am
    21    20     2    1
    22    20    21   ar
    23     4     6    1
    24     2     3    2
    25     8    12   ar
    26     8     9   ar
    27    22    21   ar
    28    12    11   ar
    29     9    10   ar
    30    19    18    1
    31    11    13    1
    32    11    10   ar
    33    13    18   ar
    34    13    14   ar
    35    18    17   ar
    36    14    15   ar
    37    17    16   ar
    38    15    16   ar
@<TRIPOS>MOLECULE
56318392_Intermediate
 34 38 0 0 0
SMALL
GASTEIGER

@<TRIPOS>ATOM
      1  N1        21.0450   20.8930   35.2580 N.am    0  non0       -0.2693
      2  C13       21.3840   20.7780   33.9360 C.2     0  non0        0.2494
      3  O5        21.0960   19.7640   33.3170 O.2     0  non0       -0.2699
      4  C3        20.3590   19.8360   35.9080 C.3     0  non0        0.0762
      5  C2        19.1160   19.9610   36.0690 C.3     0  non0        0.0215
      6  C1        20.1690   19.9420   37.1540 C.3     0  non0        0.0215
      7  C4        21.3840   22.0840   35.9840 C.3     0  non0        0.1812
      8  C5        22.8140   22.0940   36.2580 C.ar    0  non0        0.2465
      9  N2        23.5830   21.1530   36.7740 N.ar    0  non0       -0.1096
     10  N3        24.8640   21.6560   36.8280 N.ar    0  non0       -0.1071
     11  C6        24.8080   22.8770   36.3440 C.ar    0  non0        0.2505
     12  O1        23.5430   23.2240   35.9610 O.2     0  non0       -0.4177
     13  C7        25.8190   23.7820   36.1900 C.ar    0  non0        0.0657
     14  C8        26.5470   23.8350   34.9900 C.ar    0  non0        0.0056
     15  C9        27.5900   24.7560   34.8400 C.ar    0  non0        0.0002
     16  C10       27.9120   25.6310   35.8800 C.ar    0  non0        0.0009
     17  C11       27.1830   25.5820   37.0720 C.ar    0  non0        0.0115
     18  C12       26.1380   24.6690   37.2320 C.ar    0  non0        0.0622
     19 Cl         25.2170   24.6130   38.7260 Cl      0  non0       -0.0821
     20  C14       22.0890   21.8640   33.2670 C.ar    0  non0        0.0549
     21  C15       23.4400   21.7180   32.9120 C.ar    0  non0        0.0046
     22  C16       24.1190   22.7660   32.2790 C.ar    0  non0        0.0015
     23  C17       23.4570   23.9640   31.9940 C.ar    0  non0        0.0199
     24  C18       22.1090   24.1050   32.3430 C.ar    0  non0        0.1223
     25  C19       21.4220   23.0660   32.9720 C.ar    0  non0        0.0244
     26  S1        21.2820   25.6150   31.9800 S.O2    0  non0        0.0634
     27  O3        19.9960   25.3140   30.9730 O.2     0  non0       -0.1528
     28  O4        22.3380   26.6600   31.2350 O.2     0  non0       -0.1528
     29  N4        20.7350   26.2950   33.3830 N.3     0  non0       -0.1504
     30  C20       19.9890   27.5620   33.0520 C.3     0  non0        0.1279
     31  C21       19.6150   28.2850   34.3520 C.3     0  non0        0.1613
     32  O2        20.7810   28.5510   35.1400 O.3     0  non0       -0.3507
     33  C22       21.4390   27.3380   35.5220 C.3     0  non0        0.1613
     34  C23       21.9120   26.5590   34.2890 C.3     0  non0        0.1279
@<TRIPOS>BOND
     1    27    26    2
     2    28    26    2
     3    26    24    1
     4    26    29    1
     5    23    22   ar
     6    23    24   ar
     7    22    21   ar
     8    24    25   ar
     9    21    20   ar
    10    25    20   ar
    11    30    29    1
    12    30    31    1
    13    20     2    1
    14     3     2    2
    15    29    34    1
    16     2     1   am
    17    34    33    1
    18    31    32    1
    19    15    14   ar
    20    15    16   ar
    21    14    13   ar
    22    32    33    1
    23     1     4    1
    24     1     7    1
    25    16    17   ar
    26     4     5    1
    27     4     6    1
    28    12     8   ar
    29    12    11   ar
    30     7     8    1
    31     5     6    1
    32    13    11    1
    33    13    18   ar
    34     8     9   ar
    35    11    10   ar
    36     9    10   ar
    37    17    18   ar
    38    18    19    1
@<TRIPOS>MOLECULE
56318392_Intermediate
 34 38 0 0 0
SMALL
GASTEIGER

@<TRIPOS>ATOM
      1  N1        24.6340   23.1450   37.9650 N.am    0  non0       -0.2693
      2  C13       25.6770   24.0230   37.8360 C.2     0  non0        0.2494
      3  O5        26.8280   23.6110   37.8510 O.2     0  non0       -0.2699
      4  C3        24.8880   21.7580   38.1120 C.3     0  non0        0.0762
      5  C2        24.7470   21.0280   37.0950 C.3     0  non0        0.0215
      6  C1        23.9010   21.0040   38.3490 C.3     0  non0        0.0215
      7  C4        23.2830   23.6300   37.9480 C.3     0  non0        0.1812
      8  C5        22.9920   24.2950   39.2100 C.ar    0  non0        0.2465
      9  N2        23.1890   23.8840   40.4490 N.ar    0  non0       -0.1096
     10  N3        22.7420   24.8810   41.2870 N.ar    0  non0       -0.1071
     11  C6        22.2950   25.8470   40.5160 C.ar    0  non0        0.2505
     12  O1        22.4210   25.5480   39.1880 O.2     0  non0       -0.4177
     13  C7        21.7520   27.0470   40.8770 C.ar    0  non0        0.0657
     14  C8        22.5680   28.1800   41.0230 C.ar    0  non0        0.0056
     15  C9        22.0100   29.4050   41.4050 C.ar    0  non0        0.0002
     16  C10       20.6380   29.5110   41.6400 C.ar    0  non0        0.0009
     17  C11       19.8240   28.3840   41.4880 C.ar    0  non0        0.0115
     18  C12       20.3700   27.1560   41.1050 C.ar    0  non0        0.0622
     19 Cl         19.3470   25.7430   40.9060 Cl      0  non0       -0.0821
     20  C14       25.4160   25.4480   37.6850 C.ar    0  non0        0.0549
     21  C15       25.6970   26.3360   38.7360 C.ar    0  non0        0.0046
     22  C16       25.4360   27.7030   38.5930 C.ar    0  non0        0.0015
     23  C17       24.8950   28.1960   37.4020 C.ar    0  non0        0.0199
     24  C18       24.6220   27.3110   36.3530 C.ar    0  non0        0.1223
     25  C19       24.8810   25.9460   36.4840 C.ar    0  non0        0.0244
     26  S1        23.9420   27.9380   34.8560 S.O2    0  non0        0.0634
     27  O3        24.9500   27.5630   33.5900 O.2     0  non0       -0.1528
     28  O4        23.7840   29.5890   34.9680 O.2     0  non0       -0.1528
     29  N4        22.4580   27.2610   34.5970 N.3     0  non0       -0.1504
     30  C20       21.8930   27.8010   33.3080 C.3     0  non0        0.1279
     31  C21       20.4530   27.3040   33.1380 C.3     0  non0        0.1613
     32  O2        19.6480   27.6790   34.2620 O.3     0  non0       -0.3507
     33  C22       20.1420   27.0950   35.4730 C.3     0  non0        0.1613
     34  C23       21.5660   27.5750   35.7730 C.3     0  non0        0.1279
@<TRIPOS>BOND
     1    31    30    1
     2    31    32    1
     3    30    29    1
     4    27    26    2
     5    32    33    1
     6    29    26    1
     7    29    34    1
     8    26    28    2
     9    26    24    1
    10    33    34    1
    11    24    25   ar
    12    24    23   ar
    13    25    20   ar
    14     5     4    1
    15     5     6    1
    16    23    22   ar
    17    20     2    1
    18    20    21   ar
    19     2     3    2
    20     2     1   am
    21     7     1    1
    22     7     8    1
    23     1     4    1
    24     4     6    1
    25    22    21   ar
    26    12     8   ar
    27    12    11   ar
    28     8     9   ar
    29     9    10   ar
    30    11    13    1
    31    11    10   ar
    32    13    14   ar
    33    13    18   ar
    34    19    18    1
    35    14    15   ar
    36    18    17   ar
    37    15    16   ar
    38    17    16   ar
@<TRIPOS>MOLECULE
26731412_Intermediate
 30 32 0 0 0
SMALL
GASTEIGER

@<TRIPOS>ATOM
      1  C1        21.4300   23.4950   33.5300 C.ar    0  non0        0.1231
      2  C2        22.1040   24.2980   34.4510 C.ar    0  non0        0.0599
      3  C3        22.5630   23.7410   35.6500 C.ar    0  non0        0.1460
      4  C4        22.3450   22.3890   35.9270 C.ar    0  non0        0.0627
      5  C5        21.6620   21.5970   34.9960 C.ar    0  non0        0.0477
      6  C6        21.1980   22.1440   33.7990 C.ar    0  non0        0.1572
      7  S1        22.9200   21.6820   37.4270 S.3     0  non0       -0.1024
      8  C8        21.6180   20.4100   37.5110 C.3     0  non0        0.1282
      9  C9        20.7770   20.6500   38.6880 C.ar    0  non0        0.1588
     10  N2        21.0250   20.1820   39.8820 N.ar    0  non0       -0.1315
     11  N3        20.0010   20.6420   40.6960 N.ar    0  non0       -0.1212
     12  C10       19.1900   21.3600   39.9490 C.ar    0  non0        0.2070
     13  N4        19.6660   21.3680   38.6810 N.ar    0  non0       -0.2711
     14  S2        17.6790   22.2560   40.3180 S.2     0  non0       -0.0089
     15  C11       19.0940   22.0210   37.5290 C.ar    0  non0        0.0670
     16  C12       18.3230   21.2880   36.6100 C.ar    0  non0        0.0173
     17  C13       17.7810   21.9210   35.4870 C.ar    0  non0       -0.0028
     18  C14       17.9990   23.2840   35.2700 C.ar    0  non0       -0.0218
     19  C15       17.4300   23.9560   34.0850 C.3     0  non0        0.0310
     20  C16       18.7620   24.0130   36.1890 C.ar    0  non0       -0.0028
     21  C17       19.3080   23.3930   37.3140 C.ar    0  non0        0.0173
     22  O3        23.2270   24.5240   36.5530 O.3     0  non0       -0.4709
     23  C18       22.3770   25.5790   36.9760 C.3     0  non0        0.2525
     24  O2        20.5260   21.3730   32.8940 O.3     0  non0       -0.4699
     25  C7        20.3350   20.0740   33.4280 C.3     0  non0        0.2525
     26  N1        20.9710   24.0730   32.2930 N.4     0  non0       -0.2081
     27  O4        21.2590   25.4940   32.2870 O.3     0  non0       -0.0828
     28  H2        19.9760   23.9260   32.2090 H       0  non0        0.2035
     29  O1        21.6520   23.4390   31.1820 O.3     0  non0       -0.2822
     30  H1        22.4750   23.0510   31.4890 H       0  non0        0.2447
@<TRIPOS>BOND
     1    29    30    1
     2    29    26    1
     3    28    26    1
     4    27    26    1
     5    26     1    1
     6    24    25    1
     7    24     6    1
     8     1     6   ar
     9     1     2   ar
    10     6     5   ar
    11    19    18    1
    12     2     3   ar
    13     5     4   ar
    14    18    17   ar
    15    18    20   ar
    16    17    16   ar
    17     3     4   ar
    18     3    22    1
    19     4     7    1
    20    20    21   ar
    21    22    23    1
    22    16    15   ar
    23    21    15   ar
    24     7     8    1
    25     8     9    1
    26    15    13    1
    27    13     9   ar
    28    13    12   ar
    29     9    10   ar
    30    10    11   ar
    31    12    14    2
    32    12    11   ar
@<TRIPOS>MOLECULE
26731412_Intermediate
 30 32 0 0 0
SMALL
GASTEIGER

@<TRIPOS>ATOM
      1  C1        24.8880   24.8240   37.0550 C.ar    0  non0        0.1231
      2  C2        24.2730   24.0680   38.0540 C.ar    0  non0        0.0599
      3  C3        22.9010   24.2160   38.2890 C.ar    0  non0        0.1460
      4  C4        22.1510   25.1170   37.5300 C.ar    0  non0        0.0627
      5  C5        22.7830   25.8730   36.5350 C.ar    0  non0        0.0477
      6  C6        24.1500   25.7350   36.2950 C.ar    0  non0        0.1572
      7  S1        20.4290   25.3070   37.8160 S.3     0  non0       -0.1024
      8  C8        20.3690   27.0460   37.2730 C.3     0  non0        0.1282
      9  C9        20.0080   27.8990   38.4090 C.ar    0  non0        0.1588
     10  N2        18.7820   28.1810   38.7620 N.ar    0  non0       -0.1315
     11  N3        18.8800   29.0020   39.8750 N.ar    0  non0       -0.1212
     12  C10       20.1600   29.1730   40.1310 C.ar    0  non0        0.2070
     13  N4        20.8790   28.4860   39.2120 N.ar    0  non0       -0.2711
     14  S2        21.0270   30.0940   41.4050 S.2     0  non0       -0.0089
     15  C11       22.3150   28.3970   39.1040 C.ar    0  non0        0.0670
     16  C12       23.0070   29.1990   38.1800 C.ar    0  non0        0.0173
     17  C13       24.3960   29.1010   38.0670 C.ar    0  non0       -0.0028
     18  C14       25.1090   28.2080   38.8730 C.ar    0  non0       -0.0218
     19  C15       26.5770   28.1000   38.7570 C.3     0  non0        0.0310
     20  C16       24.4200   27.4150   39.7960 C.ar    0  non0       -0.0028
     21  C17       23.0320   27.5040   39.9180 C.ar    0  non0        0.0173
     22  O3        22.2950   23.4750   39.2640 O.3     0  non0       -0.4709
     23  C18       22.8910   23.7690   40.5180 C.3     0  non0        0.2525
     24  O2        24.7680   26.4770   35.3290 O.3     0  non0       -0.4699
     25  C7        23.8370   27.3810   34.7600 C.3     0  non0        0.2525
     26  N1        26.2970   24.6570   36.8110 N.4     0  non0       -0.2081
     27  O4        26.8480   23.7240   37.7750 O.3     0  non0       -0.0828
     28  H2        26.7570   25.5520   36.9020 H       0  non0        0.2035
     29  O1        26.4990   24.1410   35.4710 O.3     0  non0       -0.2822
     30  H1        27.0730   24.7350   34.9820 H       0  non0        0.2447
@<TRIPOS>BOND
     1    25    24    1
     2    30    29    1
     3    24     6    1
     4    29    26    1
     5     6     5   ar
     6     6     1   ar
     7     5     4   ar
     8    26    28    1
     9    26     1    1
    10    26    27    1
    11     1     2   ar
    12     8     7    1
    13     8     9    1
    14     4     7    1
    15     4     3   ar
    16     2     3   ar
    17    17    16   ar
    18    17    18   ar
    19    16    15   ar
    20     3    22    1
    21     9    10   ar
    22     9    13   ar
    23    19    18    1
    24    10    11   ar
    25    18    20   ar
    26    15    13    1
    27    15    21   ar
    28    13    12   ar
    29    22    23    1
    30    20    21   ar
    31    11    12   ar
    32    12    14    2
@<TRIPOS>MOLECULE
26731412_Intermediate
 30 32 0 0 0
SMALL
GASTEIGER

@<TRIPOS>ATOM
      1  C1        19.0880   26.3750   36.3360 C.ar    0  non0        0.1231
      2  C2        20.1720   25.8240   35.6510 C.ar    0  non0        0.0599
      3  C3        20.7690   24.6520   36.1280 C.ar    0  non0        0.1460
      4  C4        20.2850   24.0370   37.2860 C.ar    0  non0        0.0627
      5  C5        19.2010   24.6050   37.9660 C.ar    0  non0        0.0477
      6  C6        18.6010   25.7750   37.5000 C.ar    0  non0        0.1572
      7  S1        21.0260   22.5640   37.8890 S.3     0  non0       -0.1024
      8  C8        20.6130   22.8830   39.6350 C.3     0  non0        0.1282
      9  C9        21.8480   23.0660   40.4030 C.ar    0  non0        0.1588
     10  N2        22.5290   22.0950   40.9530 N.ar    0  non0       -0.1315
     11  N3        23.6180   22.6890   41.5710 N.ar    0  non0       -0.1212
     12  C10       23.5350   23.9870   41.3630 C.ar    0  non0        0.2070
     13  N4        22.4220   24.2360   40.6320 N.ar    0  non0       -0.2711
     14  S2        24.5810   25.3600   41.8530 S.2     0  non0       -0.0089
     15  C11       21.9320   25.5150   40.1810 C.ar    0  non0        0.0670
     16  C12       20.9030   26.1670   40.8820 C.ar    0  non0        0.0173
     17  C13       20.4210   27.4000   40.4350 C.ar    0  non0       -0.0028
     18  C14       20.9590   27.9960   39.2910 C.ar    0  non0       -0.0218
     19  C15       20.4520   29.2980   38.8130 C.3     0  non0        0.0310
     20  C16       21.9870   27.3490   38.5970 C.ar    0  non0       -0.0028
     21  C17       22.4770   26.1170   39.0340 C.ar    0  non0        0.0173
     22  O3        21.8280   24.1070   35.4580 O.3     0  non0       -0.4709
     23  C18       22.8970   25.0400   35.4280 C.3     0  non0        0.2525
     24  O2        17.5480   26.3320   38.1670 O.3     0  non0       -0.4699
     25  C7        17.2960   25.5970   39.3520 C.3     0  non0        0.2525
     26  N1        18.4710   27.5750   35.8320 N.4     0  non0       -0.2081
     27  O4        19.2040   28.0460   34.6730 O.3     0  non0       -0.0828
     28  H2        18.4850   28.2820   36.5540 H       0  non0        0.2035
     29  O1        17.1010   27.2930   35.4550 O.3     0  non0       -0.2822
     30  H1        16.6140   26.9840   36.2220 H       0  non0        0.2447
@<TRIPOS>BOND
     1    27    26    1
     2    23    22    1
     3    29    26    1
     4    29    30    1
     5    22     3    1
     6     2     3   ar
     7     2     1   ar
     8    26     1    1
     9    26    28    1
    10     3     4   ar
    11     1     6   ar
    12     4     7    1
    13     4     5   ar
    14     6     5   ar
    15     6    24    1
    16     7     8    1
    17    24    25    1
    18    20    21   ar
    19    20    18   ar
    20    19    18    1
    21    21    15   ar
    22    18    17   ar
    23     8     9    1
    24    15    13    1
    25    15    16   ar
    26     9    13   ar
    27     9    10   ar
    28    17    16   ar
    29    13    12   ar
    30    10    11   ar
    31    12    11   ar
    32    12    14    2
@<TRIPOS>MOLECULE
24268692_Intermediate
 32 35 0 0 0
SMALL
GASTEIGER

@<TRIPOS>ATOM
      1  C1        26.0960   32.1190   31.2150 C.3     0  non0        0.1539
      2  N1        25.0470   31.1420   31.3570 N.ar    0  non0       -0.2426
      3  C2        25.0340   29.9390   31.9370 C.ar    0  non0        0.1531
      4  C3        26.1370   29.2660   32.6090 C.ar    0  non0        0.2814
      5  N2        25.7140   28.0500   33.0790 N.ar    0  non0       -0.2702
      6  C11       24.4450   27.5350   32.9470 C.ar    0  non0        0.1743
      7  N3        23.4170   28.0810   32.3660 N.ar    0  non0       -0.2192
      8  C12       23.7550   29.3440   31.8360 C.ar    0  non0        0.1261
      9  C13       22.9480   30.2150   31.1460 C.ar    0  non0        0.1409
     10  N4        23.7860   31.2880   30.8860 N.ar    0  non0       -0.1659
     11  O2        27.2570   29.7120   32.7340 O.2     0  non0       -0.2652
     12  S1        24.2880   25.9660   33.6760 S.3     0  non0       -0.0674
     13  C14       22.9220   25.4260   32.5970 C.3     0  non0        0.1501
     14  C15       23.4480   24.4920   31.5600 C.2     0  non0        0.2376
     15  N5        24.7970   24.3350   31.3990 N.am    0  non0       -0.2814
     16  H14       25.4260   24.8590   31.9920 H       0  non0        0.1549
     17  O1        22.6720   23.8660   30.8520 O.2     0  non0       -0.2738
     18  C16       25.2880   23.4630   30.4270 C.ar    0  non0        0.0782
     19  C17       25.6100   22.1370   30.7590 C.ar    0  non0        0.0175
     20  C18       26.1140   21.2680   29.7860 C.ar    0  non0        0.0081
     21  C19       26.2960   21.7120   28.4740 C.ar    0  non0        0.0369
     22  C20       25.9700   23.0310   28.1410 C.ar    0  non0        0.0376
     23 Br         26.9940   20.5220   27.1280 Br      0  non0       -0.0489
     24  C21       25.4650   23.9050   29.1050 C.ar    0  non0        0.1540
     25  F1        25.1380   25.1940   28.7750 F       0  non0       -0.2028
     26  C4        26.7200   27.2960   33.7530 C.3     0  non0        0.1377
     27  C5        27.3820   26.3820   32.7880 C.ar    0  non0        0.0005
     28  C6        27.8810   25.1400   33.2150 C.ar    0  non0       -0.0024
     29  C7        28.5150   24.2830   32.3080 C.ar    0  non0       -0.0003
     30  C8        28.6540   24.6560   30.9690 C.ar    0  non0       -0.0000
     31  C9        28.1530   25.8910   30.5420 C.ar    0  non0       -0.0003
     32  C10       27.5170   26.7520   31.4390 C.ar    0  non0       -0.0024
@<TRIPOS>BOND
     1    23    21    1
     2    22    21   ar
     3    22    24   ar
     4    21    20   ar
     5    25    24    1
     6    24    18   ar
     7    20    19   ar
     8    18    19   ar
     9    18    15    1
    10    31    30   ar
    11    31    32   ar
    12    17    14    2
    13    10     9   ar
    14    10     2   ar
    15    30    29   ar
    16     9     8   ar
    17     1     2    1
    18     2     3   ar
    19    15    14   am
    20    15    16    1
    21    32    27   ar
    22    14    13    1
    23     8     3   ar
    24     8     7   ar
    25     3     4   ar
    26    29    28   ar
    27     7     6   ar
    28    13    12    1
    29     4    11    2
    30     4     5   ar
    31    27    28   ar
    32    27    26    1
    33     6     5   ar
    34     6    12    1
    35     5    26    1
@<TRIPOS>MOLECULE
24268692_Intermediate
 32 35 0 0 0
SMALL
GASTEIGER

@<TRIPOS>ATOM
      1  C1        19.7030   23.5080   38.7640 C.3     0  non0        0.1539
      2  N1        18.7290   24.4670   39.2200 N.ar    0  non0       -0.2426
      3  C2        17.4030   24.5210   39.0670 C.ar    0  non0        0.1531
      4  C3        16.5540   23.5740   38.3590 C.ar    0  non0        0.2814
      5  N2        15.2480   23.9810   38.4410 N.ar    0  non0       -0.2702
      6  C11       14.7960   25.1040   39.0920 C.ar    0  non0        0.1743
      7  N3        15.4950   25.9850   39.7450 N.ar    0  non0       -0.2192
      8  C12       16.8670   25.6600   39.7120 C.ar    0  non0        0.1261
      9  C13       17.9140   26.3490   40.2720 C.ar    0  non0        0.1409
     10  N4        19.0170   25.5750   39.9440 N.ar    0  non0       -0.1659
     11  O2        16.9410   22.5790   37.7850 O.2     0  non0       -0.2652
     12  S1        13.0720   25.2860   38.9800 S.3     0  non0       -0.0674
     13  C14       13.0900   27.0990   39.1700 C.3     0  non0        0.1501
     14  C15       12.8810   27.7400   37.8400 C.2     0  non0        0.2376
     15  N5        12.9310   26.9850   36.6990 N.am    0  non0       -0.2814
     16  H14       13.1110   25.9940   36.7750 H       0  non0        0.1549
     17  O1        12.6650   28.9410   37.7680 O.2     0  non0       -0.2738
     18  C16       12.7380   27.5860   35.4560 C.ar    0  non0        0.0782
     19  C17       11.4610   27.6130   34.8700 C.ar    0  non0        0.0175
     20  C18       11.2720   28.2040   33.6170 C.ar    0  non0        0.0081
     21  C19       12.3500   28.7780   32.9400 C.ar    0  non0        0.0369
     22  C20       13.6210   28.7570   33.5260 C.ar    0  non0        0.0376
     23 Br         12.0990   29.5910   31.2120 Br      0  non0       -0.0489
     24  C21       13.8200   28.1710   34.7760 C.ar    0  non0        0.1540
     25  F1        15.0630   28.1580   35.3520 F       0  non0       -0.2028
     26  C4        14.3220   23.1260   37.7720 C.3     0  non0        0.1377
     27  C5        14.1000   23.6220   36.3900 C.ar    0  non0        0.0005
     28  C6        12.8500   23.4590   35.7690 C.ar    0  non0       -0.0024
     29  C7        12.6450   23.9160   34.4630 C.ar    0  non0       -0.0003
     30  C8        13.6800   24.5450   33.7670 C.ar    0  non0       -0.0000
     31  C9        14.9240   24.7130   34.3870 C.ar    0  non0       -0.0003
     32  C10       15.1380   24.2610   35.6910 C.ar    0  non0       -0.0024
@<TRIPOS>BOND
     1    23    21    1
     2    21    22   ar
     3    21    20   ar
     4    22    24   ar
     5    20    19   ar
     6    30    31   ar
     7    30    29   ar
     8    31    32   ar
     9    29    28   ar
    10    24    25    1
    11    24    18   ar
    12    19    18   ar
    13    18    15    1
    14    32    27   ar
    15    28    27   ar
    16    27    26    1
    17    15    16    1
    18    15    14   am
    19    17    14    2
    20    26     5    1
    21    11     4    2
    22    14    13    1
    23     4     5   ar
    24     4     3   ar
    25     5     6   ar
    26     1     2    1
    27    12     6    1
    28    12    13    1
    29     3     2   ar
    30     3     8   ar
    31     6     7   ar
    32     2    10   ar
    33     8     7   ar
    34     8     9   ar
    35    10     9   ar
@<TRIPOS>MOLECULE
24268692_Intermediate
 32 35 0 0 0
SMALL
GASTEIGER

@<TRIPOS>ATOM
      1  C1        18.1040   20.5780   33.4420 C.3     0  non0        0.1539
      2  N1        19.0030   21.1950   34.3840 N.ar    0  non0       -0.2426
      3  C2        18.9030   22.3240   35.0910 C.ar    0  non0        0.1531
      4  C3        17.8020   23.2770   35.0880 C.ar    0  non0        0.2814
      5  N2        18.0790   24.2990   35.9570 N.ar    0  non0       -0.2702
      6  C11       19.2150   24.4170   36.7230 C.ar    0  non0        0.1743
      7  N3        20.2300   23.6040   36.7780 N.ar    0  non0       -0.2192
      8  C12       20.0450   22.5130   35.9030 C.ar    0  non0        0.1261
      9  C13       20.8950   21.4600   35.6730 C.ar    0  non0        0.1409
     10  N4        20.2070   20.6920   34.7460 N.ar    0  non0       -0.1659
     11  O2        16.7950   23.1810   34.4190 O.2     0  non0       -0.2652
     12  S1        19.2060   25.8490   37.7060 S.3     0  non0       -0.0674
     13  C14       21.0210   25.9920   37.7950 C.3     0  non0        0.1501
     14  C15       21.4790   27.0770   36.8820 C.2     0  non0        0.2376
     15  N5        20.6110   27.6230   35.9760 N.am    0  non0       -0.2814
     16  H14       19.6610   27.2810   35.9390 H       0  non0        0.1549
     17  O1        22.6330   27.4790   36.9410 O.2     0  non0       -0.2738
     18  C16       21.0410   28.6370   35.1200 C.ar    0  non0        0.0782
     19  C17       20.8650   29.9860   35.4710 C.ar    0  non0        0.0175
     20  C18       21.2860   31.0010   34.6050 C.ar    0  non0        0.0081
     21  C19       21.8900   30.6800   33.3870 C.ar    0  non0        0.0369
     22  C20       22.0710   29.3370   33.0390 C.ar    0  non0        0.0376
     23 Br         22.4680   32.0720   32.1870 Br      0  non0       -0.0489
     24  C21       21.6560   28.3170   33.8980 C.ar    0  non0        0.1540
     25  F1        21.8420   27.0020   33.5600 F       0  non0       -0.2028
     26  C4        17.0660   25.3010   36.0300 C.3     0  non0        0.1377
     27  C5        17.3790   26.3920   35.0730 C.ar    0  non0        0.0005
     28  C6        16.9970   27.7150   35.3530 C.ar    0  non0       -0.0024
     29  C7        17.2820   28.7400   34.4450 C.ar    0  non0       -0.0003
     30  C8        17.9520   28.4580   33.2520 C.ar    0  non0       -0.0000
     31  C9        18.3380   27.1410   32.9750 C.ar    0  non0       -0.0003
     32  C10       18.0590   26.1110   33.8750 C.ar    0  non0       -0.0024
@<TRIPOS>BOND
     1    23    21    1
     2    31    30   ar
     3    31    32   ar
     4    22    21   ar
     5    22    24   ar
     6    30    29   ar
     7    21    20   ar
     8     1     2    1
     9    25    24    1
    10    32    27   ar
    11    24    18   ar
    12     2    10   ar
    13     2     3   ar
    14    11     4    2
    15    29    28   ar
    16    20    19   ar
    17    10     9   ar
    18    27    28   ar
    19    27    26    1
    20     4     3   ar
    21     4     5   ar
    22     3     8   ar
    23    18    19   ar
    24    18    15    1
    25     9     8   ar
    26     8     7   ar
    27    16    15    1
    28     5    26    1
    29     5     6   ar
    30    15    14   am
    31     6     7   ar
    32     6    12    1
    33    14    17    2
    34    14    13    1
    35    12    13    1
@<TRIPOS>MOLECULE
3712638_Intermediate
 27 30 0 0 0
SMALL
GASTEIGER

@<TRIPOS>ATOM
      1  C1        15.2930   32.2880   30.0980 C.ar    0  non0        0.0046
      2  C2        15.4080   32.1020   28.6690 C.ar    0  non0        0.0192
      3  C3        16.6250   31.9280   28.1310 C.ar    0  non0        0.0844
      4  N1        17.7830   31.9220   28.9050 N.ar    0  non0       -0.2577
      5  C4        17.7280   32.0950   30.2740 C.ar    0  non0        0.1514
      6  C5        16.3810   32.2880   30.8770 C.ar    0  non0        0.0376
      7  N2        18.7620   32.1010   31.0530 N.ar    0  non0       -0.2130
      8  C6        20.0180   31.9270   30.5210 C.ar    0  non0        0.1390
      9  C7        20.1980   31.7470   29.1920 C.ar    0  non0        0.0876
     10  C8        21.5220   31.5540   28.6250 C.2     0  non0        0.0035
     11  C9        22.6400   31.6060   29.3650 C.2     0  non0        0.0091
     12  C10       23.8860   31.4130   28.7440 C.3     0  non0        0.1344
     13  N3        25.1310   31.2200   28.1220 N.3     0  non0       -0.1265
     14  C11       22.4570   31.8750   30.8330 C.3     0  non0        0.1660
     15  N4        23.5480   32.0510   31.6160 N.3     0  non0       -0.2245
     16  N5        21.1590   31.9390   31.3640 N.pl3   0  non0       -0.2775
     17  C18       19.0090   31.7350   28.2930 C.ar    0  non0        0.2685
     18  O1        19.1560   31.5670   27.1020 O.2     0  non0       -0.2665
     19  H6        23.6190   33.0220   31.8820 H       0  non0        0.1434
     20  C12       21.1170   32.0130   32.8030 C.3     0  non0        0.0957
     21  C13       20.9950   30.6130   33.3800 C.3     0  non0        0.0460
     22  C14       19.8360   30.5680   34.3620 C.3     0  non0        0.1094
     23  N6        18.6840   29.9590   33.7230 N.ar    0  non0       -0.3078
     24  C15       18.8380   29.0010   32.8670 C.ar    0  non0        0.0980
     25  C16       17.4970   28.7640   32.5760 C.ar    0  non0        0.1193
     26  N7        16.6820   29.6100   33.3000 N.ar    0  non0       -0.2223
     27  C17       17.4930   30.3630   34.0010 C.ar    0  non0        0.1786
@<TRIPOS>BOND
     1    18    17    2
     2    13    12    1
     3     3     2   ar
     4     3     4   ar
     5    17     4   ar
     6    17     9   ar
     7    10     9    1
     8    10    11    2
     9     2     1   ar
    10    12    11    1
    11     4     5   ar
    12     9     8   ar
    13    11    14    1
    14     1     6   ar
    15     5     6   ar
    16     5     7   ar
    17     8     7   ar
    18     8    16    1
    19    14    16    1
    20    14    15    1
    21    16    20    1
    22    15    19    1
    23    25    24   ar
    24    25    26   ar
    25    20    21    1
    26    24    23   ar
    27    26    27   ar
    28    21    22    1
    29    23    27   ar
    30    23    22    1
@<TRIPOS>MOLECULE
3712638_Intermediate
 27 30 0 0 0
SMALL
GASTEIGER

@<TRIPOS>ATOM
      1  C1        22.2910   28.2530   34.9320 C.ar    0  non0        0.0046
      2  C2        22.4960   29.6840   34.9290 C.ar    0  non0        0.0192
      3  C3        21.5700   30.4740   34.3630 C.ar    0  non0        0.0844
      4  N1        20.4170   29.9590   33.7760 N.ar    0  non0       -0.2577
      5  C4        20.1730   28.6000   33.7520 C.ar    0  non0        0.1514
      6  C5        21.1960   27.7190   34.3790 C.ar    0  non0        0.0376
      7  N2        19.1250   28.0530   33.2250 N.ar    0  non0       -0.2130
      8  C6        18.1650   28.8440   32.6360 C.ar    0  non0        0.1390
      9  C7        18.2940   30.1920   32.5990 C.ar    0  non0        0.0876
     10  C8        17.2790   31.0340   31.9870 C.2     0  non0        0.0035
     11  C9        16.1980   30.5310   31.3720 C.2     0  non0        0.0091
     12  C10       15.2620   31.4090   30.8000 C.3     0  non0        0.1344
     13  N3        14.3270   32.2880   30.2280 N.3     0  non0       -0.1265
     14  C11       16.0800   29.0320   31.3460 C.3     0  non0        0.1660
     15  N4        15.0730   28.4590   30.6470 N.3     0  non0       -0.2245
     16  N5        17.0160   28.2560   32.0490 N.pl3   0  non0       -0.2775
     17  C18       19.4980   30.8240   33.2100 C.ar    0  non0        0.2685
     18  O1        19.6200   32.0290   33.1900 O.2     0  non0       -0.2665
     19  H6        15.4470   28.0170   29.8190 H       0  non0        0.1434
     20  C12       16.6910   26.8530   32.1040 C.3     0  non0        0.0957
     21  C13       15.9020   26.5660   33.3710 C.3     0  non0        0.0460
     22  C14       16.5460   25.4100   34.1180 C.3     0  non0        0.1094
     23  N6        17.3340   25.9270   35.2220 N.ar    0  non0       -0.3078
     24  C15       16.9470   26.9770   35.8710 C.ar    0  non0        0.0980
     25  C16       17.9860   27.0460   36.7950 C.ar    0  non0        0.1193
     26  N7        18.8860   26.0190   36.5970 N.ar    0  non0       -0.2223
     27  C17       18.4310   25.3470   35.5700 C.ar    0  non0        0.1786
@<TRIPOS>BOND
     1    19    15    1
     2    13    12    1
     3    15    14    1
     4    12    11    1
     5    14    11    1
     6    14    16    1
     7    11    10    2
     8    10     9    1
     9    16    20    1
    10    16     8    1
    11    20    21    1
    12     9     8   ar
    13     9    17   ar
    14     8     7   ar
    15    18    17    2
    16    17     4   ar
    17     7     5   ar
    18    21    22    1
    19     5     4   ar
    20     5     6   ar
    21     4     3   ar
    22    22    23    1
    23     3     2   ar
    24     6     1   ar
    25     2     1   ar
    26    23    27   ar
    27    23    24   ar
    28    27    26   ar
    29    24    25   ar
    30    26    25   ar
@<TRIPOS>MOLECULE
3712638_Intermediate
 27 30 0 0 0
SMALL
GASTEIGER

@<TRIPOS>ATOM
      1  C1        21.1660   24.3780   30.9630 C.ar    0  non0        0.0046
      2  C2        21.9500   25.0490   29.9510 C.ar    0  non0        0.0192
      3  C3        21.4540   26.1520   29.3690 C.ar    0  non0        0.0844
      4  N1        20.2080   26.6720   29.7080 N.ar    0  non0       -0.2577
      5  C4        19.4200   26.0700   30.6680 C.ar    0  non0        0.1514
      6  C5        19.9630   24.8460   31.3180 C.ar    0  non0        0.0376
      7  N2        18.2540   26.4970   31.0320 N.ar    0  non0       -0.2130
      8  C6        17.7260   27.6250   30.4460 C.ar    0  non0        0.1390
      9  C7        18.4070   28.3020   29.4910 C.ar    0  non0        0.0876
     10  C8        17.8600   29.4990   28.8740 C.2     0  non0        0.0035
     11  C9        16.6340   29.9640   29.1620 C.2     0  non0        0.0091
     12  C10       16.1720   31.1260   28.5210 C.3     0  non0        0.1344
     13  N3        15.7120   32.2880   27.8800 N.3     0  non0       -0.1265
     14  C11       15.8410   29.1800   30.1700 C.3     0  non0        0.1660
     15  N4        14.5580   29.5310   30.4220 N.3     0  non0       -0.2245
     16  N5        16.4470   28.0990   30.8310 N.pl3   0  non0       -0.2775
     17  C18       19.7530   27.8140   29.0740 C.ar    0  non0        0.2685
     18  O1        20.3750   28.4160   28.2260 O.2     0  non0       -0.2665
     19  H6        13.9370   28.8390   30.0280 H       0  non0        0.1434
     20  C12       15.6540   27.5480   31.9020 C.3     0  non0        0.0957
     21  C13       16.0340   28.2190   33.2100 C.3     0  non0        0.0460
     22  C14       16.3330   27.1590   34.2570 C.3     0  non0        0.1094
     23  N6        17.7690   27.0000   34.3890 N.ar    0  non0       -0.3078
     24  C15       18.5560   28.0210   34.2750 C.ar    0  non0        0.0980
     25  C16       19.7700   27.3740   34.4910 C.ar    0  non0        0.1193
     26  N7        19.5740   26.0270   34.7160 N.ar    0  non0       -0.2223
     27  C17       18.2810   25.8410   34.6200 C.ar    0  non0        0.1786
@<TRIPOS>BOND
     1    13    12    1
     2    18    17    2
     3    12    11    1
     4    10    11    2
     5    10     9    1
     6    17     9   ar
     7    17     4   ar
     8    11    14    1
     9     3     4   ar
    10     3     2   ar
    11     9     8   ar
    12     4     5   ar
    13     2     1   ar
    14    19    15    1
    15    14    15    1
    16    14    16    1
    17     8    16    1
    18     8     7   ar
    19     5     7   ar
    20     5     6   ar
    21    16    20    1
    22     1     6   ar
    23    20    21    1
    24    21    22    1
    25    22    23    1
    26    24    23   ar
    27    24    25   ar
    28    23    27   ar
    29    25    26   ar
    30    27    26   ar
@<TRIPOS>MOLECULE
47200577_Accepted
 23 25 0 0 0
SMALL
GASTEIGER

@<TRIPOS>ATOM
      1  C9        16.8300   24.7130   27.9210 C.ar    0  non0        0.2785
      2  N1        17.9670   25.0710   27.3260 N.ar    0  non0       -0.1006
      3  N2        17.9420   26.4480   27.2910 N.ar    0  non0       -0.1065
      4  C10       16.8130   26.8180   27.8540 C.ar    0  non0        0.2504
      5  O3        16.0690   25.7500   28.2730 O.2     0  non0       -0.4110
      6  S1        16.3670   22.9940   28.2200 S.3     0  non0       -0.0505
      7  C1        17.1520   22.9010   29.8620 C.3     0  non0        0.0930
      8  C2        16.4890   23.8470   30.7790 C.ar    0  non0       -0.0106
      9  C3        15.1210   23.7150   31.0290 C.ar    0  non0       -0.0034
     10  C4        14.4840   24.6170   31.8880 C.ar    0  non0       -0.0001
     11  C5        15.2130   25.6420   32.4980 C.ar    0  non0        0.0066
     12  C6        16.5830   25.7580   32.2430 C.ar    0  non0        0.0795
     13  C7        17.2280   24.8630   31.3890 C.ar    0  non0        0.0032
     14  C8        17.3330   26.8210   32.8780 C.2     0  non0        0.3877
     15  O1        18.3210   26.5560   33.5470 O.co2   0  non0       -0.2406
     16  O2        16.9390   28.1090   32.7310 O.co2   0  non0       -0.2406
     17  C11       16.3310   28.0800   28.0560 C.ar    0  non0        0.0552
     18  C12       15.8700   28.4690   29.3240 C.ar    0  non0        0.0056
     19  C13       15.3650   29.7580   29.5270 C.ar    0  non0        0.0115
     20  C14       15.3200   30.6700   28.4690 C.ar    0  non0        0.0577
     21  C15       15.7860   30.2830   27.2070 C.ar    0  non0        0.0115
     22 Cl         14.6840   32.2880   28.7150 Cl      0  non0       -0.0822
     23  C16       16.2920   29.0010   26.9960 C.ar    0  non0        0.0056
@<TRIPOS>BOND
     1    23    21   ar
     2    23    17   ar
     3    21    20   ar
     4     3     2   ar
     5     3     4   ar
     6     2     1   ar
     7     4    17    1
     8     4     5   ar
     9     1     6    1
    10     1     5   ar
    11    17    18   ar
    12     6     7    1
    13    20    22    1
    14    20    19   ar
    15    18    19   ar
    16     7     8    1
    17     8     9   ar
    18     8    13   ar
    19     9    10   ar
    20    13    12   ar
    21    10    11   ar
    22    12    11   ar
    23    12    14    1
    24    16    14   ar
    25    14    15   ar
@<TRIPOS>MOLECULE
47200577_Accepted
 23 25 0 0 0
SMALL
GASTEIGER

@<TRIPOS>ATOM
      1  C9        19.5960   25.7600   34.8980 C.ar    0  non0        0.2785
      2  N1        18.9700   24.6510   34.5090 N.ar    0  non0       -0.1006
      3  N2        19.5950   23.6240   35.1830 N.ar    0  non0       -0.1065
      4  C10       20.5380   24.1740   35.9160 C.ar    0  non0        0.2504
      5  O3        20.5790   25.5330   35.7710 O.2     0  non0       -0.4110
      6  S1        19.1570   27.4070   34.3040 S.3     0  non0       -0.0505
      7  C1        17.9420   27.7340   35.6220 C.3     0  non0        0.0930
      8  C2        18.6270   27.7540   36.9290 C.ar    0  non0       -0.0106
      9  C3        19.6510   28.6770   37.1510 C.ar    0  non0       -0.0034
     10  C4        20.3120   28.6930   38.3830 C.ar    0  non0       -0.0001
     11  C5        19.9480   27.7940   39.3900 C.ar    0  non0        0.0066
     12  C6        18.9150   26.8810   39.1550 C.ar    0  non0        0.0795
     13  C7        18.2490   26.8570   37.9290 C.ar    0  non0        0.0032
     14  C8        18.5400   25.9530   40.2010 C.2     0  non0        0.3877
     15  O1        17.3820   25.9030   40.5870 O.co2   0  non0       -0.2406
     16  O2        19.4740   25.1400   40.7520 O.co2   0  non0       -0.2406
     17  C11       21.4280   23.5710   36.7580 C.ar    0  non0        0.0552
     18  C12       22.1820   22.4690   36.3230 C.ar    0  non0        0.0056
     19  C13       23.0840   21.8440   37.1910 C.ar    0  non0        0.0115
     20  C14       23.2450   22.3150   38.4970 C.ar    0  non0        0.0577
     21  C15       22.4970   23.4180   38.9260 C.ar    0  non0        0.0115
     22 Cl         24.3720   21.5340   39.5930 Cl      0  non0       -0.0822
     23  C16       21.5970   24.0480   38.0690 C.ar    0  non0        0.0056
@<TRIPOS>BOND
     1     6     1    1
     2     6     7    1
     3     2     1   ar
     4     2     3   ar
     5     1     5   ar
     6     3     4   ar
     7     7     8    1
     8     5     4   ar
     9     4    17    1
    10    18    17   ar
    11    18    19   ar
    12    17    23   ar
    13     8     9   ar
    14     8    13   ar
    15     9    10   ar
    16    19    20   ar
    17    13    12   ar
    18    23    21   ar
    19    10    11   ar
    20    20    21   ar
    21    20    22    1
    22    12    11   ar
    23    12    14    1
    24    14    15   ar
    25    14    16   ar
@<TRIPOS>MOLECULE
47200577_Accepted
 23 25 0 0 0
SMALL
GASTEIGER

@<TRIPOS>ATOM
      1  C9        16.7670   19.8020   37.5540 C.ar    0  non0        0.2785
      2  N1        18.0580   19.4840   37.6300 N.ar    0  non0       -0.1006
      3  N2        18.6100   19.9080   36.4410 N.ar    0  non0       -0.1065
      4  C10       17.6320   20.4410   35.7420 C.ar    0  non0        0.2504
      5  O3        16.4380   20.3990   36.4070 O.2     0  non0       -0.4110
      6  S1        15.5810   19.4610   38.8710 S.3     0  non0       -0.0505
      7  C1        15.8330   21.0480   39.7280 C.3     0  non0        0.0930
      8  C2        15.4150   22.1560   38.8470 C.ar    0  non0       -0.0106
      9  C3        14.0980   22.2040   38.3860 C.ar    0  non0       -0.0034
     10  C4        13.6990   23.2440   37.5400 C.ar    0  non0       -0.0001
     11  C5        14.6110   24.2330   37.1620 C.ar    0  non0        0.0066
     12  C6        15.9250   24.1750   37.6380 C.ar    0  non0        0.0795
     13  C7        16.3330   23.1420   38.4820 C.ar    0  non0        0.0032
     14  C8        16.8660   25.2030   37.2440 C.2     0  non0        0.3877
     15  O1        17.4620   25.8440   38.0960 O.co2   0  non0       -0.2406
     16  O2        17.0850   25.4530   35.9310 O.co2   0  non0       -0.2406
     17  C11       17.6770   21.0000   34.4970 C.ar    0  non0        0.0552
     18  C12       18.2850   20.3150   33.4330 C.ar    0  non0        0.0056
     19  C13       18.3420   20.8940   32.1610 C.ar    0  non0        0.0115
     20  C14       17.7900   22.1590   31.9380 C.ar    0  non0        0.0577
     21  C15       17.1770   22.8370   32.9990 C.ar    0  non0        0.0115
     22 Cl         17.8600   22.8940   30.3450 Cl      0  non0       -0.0822
     23  C16       17.1150   22.2680   34.2700 C.ar    0  non0        0.0056
@<TRIPOS>BOND
     1    22    20    1
     2    20    19   ar
     3    20    21   ar
     4    19    18   ar
     5    21    23   ar
     6    18    17   ar
     7    23    17   ar
     8    17     4    1
     9     4     5   ar
    10     4     3   ar
    11    16    14   ar
    12     5     1   ar
    13     3     2   ar
    14    11    10   ar
    15    11    12   ar
    16    14    12    1
    17    14    15   ar
    18    10     9   ar
    19     1     2   ar
    20     1     6    1
    21    12    13   ar
    22     9     8   ar
    23    13     8   ar
    24     8     7    1
    25     6     7    1
@<TRIPOS>MOLECULE
17402166_Intermediate
 30 33 0 0 0
SMALL
GASTEIGER

@<TRIPOS>ATOM
      1  C1        20.7780   24.7130   31.6560 C.3     0  non0        0.0952
      2  C3        20.6010   23.8540   32.8620 C.3     0  non0        0.2098
      3  O2        21.5840   24.0140   33.8170 O.3     0  non0       -0.4756
      4  C4        22.3160   25.2150   33.8960 C.ar    0  non0        0.1361
      5  C5        23.3100   25.2220   34.8680 C.ar    0  non0        0.0366
      6  C6        23.9940   26.4000   35.1310 C.ar    0  non0        0.0031
      7  C7        23.6490   27.5860   34.4710 C.ar    0  non0       -0.0001
      8  C8        24.3160   28.7750   34.8150 C.ar    0  non0       -0.0000
      9  C9        23.9730   29.9870   34.2260 C.ar    0  non0       -0.0000
     10  C10       22.9480   30.0270   33.2950 C.ar    0  non0       -0.0000
     11  C11       22.2820   28.8500   32.9380 C.ar    0  non0       -0.0002
     12  C12       22.6230   27.5890   33.4850 C.ar    0  non0        0.0005
     13  C13       21.9980   26.3490   33.1340 C.ar    0  non0        0.0297
     14  C14       20.9520   26.1840   32.0370 C.3     0  non0        0.1044
     15  N1        19.6770   26.7040   32.5130 N.am    0  non0       -0.2863
     16  C15       18.9970   27.6340   31.7730 C.2     0  non0        0.3047
     17  N2        17.7990   28.1220   32.2210 N.am    0  non0       -0.2683
     18  O3        19.4590   28.0280   30.7120 O.2     0  non0       -0.2525
     19  H15       17.4300   27.7880   33.1010 H       0  non0        0.1564
     20  H14       19.2510   26.4120   33.3810 H       0  non0        0.1512
     21  C16       17.1050   29.0680   31.4670 C.ar    0  non0        0.0516
     22  C17       16.1680   28.6580   30.5030 C.ar    0  non0        0.0156
     23  C18       15.4800   29.6080   29.7400 C.ar    0  non0        0.0127
     24  C19       15.7180   30.9700   29.9330 C.ar    0  non0        0.0578
     25  C20       16.6430   31.3790   30.8970 C.ar    0  non0        0.0127
     26 Cl         14.8600   32.1690   28.9740 Cl      0  non0       -0.0822
     27  C21       17.3320   30.4400   31.6670 C.ar    0  non0        0.0156
     28  C2        22.0200   24.2480   30.8930 C.3     0  non0        0.1428
     29  O1        22.2790   22.8880   31.1950 O.3     0  non0       -0.3818
     30  H4        21.4590   22.4530   31.4390 H       0  non0        0.2104
@<TRIPOS>BOND
     1    26    24    1
     2    23    24   ar
     3    23    22   ar
     4    24    25   ar
     5    22    21   ar
     6    18    16    2
     7    28    29    1
     8    28     1    1
     9    25    27   ar
    10    29    30    1
    11    21    27   ar
    12    21    17    1
    13     1    14    1
    14     1     2    1
    15    16    17   am
    16    16    15   am
    17    14    15    1
    18    14    13    1
    19    17    19    1
    20    15    20    1
    21     2     3    1
    22    11    10   ar
    23    11    12   ar
    24    13    12   ar
    25    13     4   ar
    26    10     9   ar
    27    12     7   ar
    28     3     4    1
    29     4     5   ar
    30     9     8   ar
    31     7     8   ar
    32     7     6   ar
    33     5     6   ar
@<TRIPOS>MOLECULE
17402166_Intermediate
 30 33 0 0 0
SMALL
GASTEIGER

@<TRIPOS>ATOM
      1  C1        13.3260   26.1670   31.3820 C.3     0  non0        0.0952
      2  C3        14.3910   25.3510   30.7310 C.3     0  non0        0.2098
      3  O2        14.8230   25.8500   29.5200 O.3     0  non0       -0.4756
      4  C4        14.6940   27.2210   29.2240 C.ar    0  non0        0.1361
      5  C5        15.1210   27.5800   27.9510 C.ar    0  non0        0.0366
      6  C6        15.1730   28.9230   27.6050 C.ar    0  non0        0.0031
      7  C7        14.8600   29.9120   28.5450 C.ar    0  non0       -0.0001
      8  C8        14.9940   31.2630   28.1810 C.ar    0  non0       -0.0000
      9  C9        14.7450   32.2820   29.0950 C.ar    0  non0       -0.0000
     10  C10       14.3730   31.9600   30.3900 C.ar    0  non0       -0.0000
     11  C11       14.2290   30.6200   30.7630 C.ar    0  non0       -0.0002
     12  C12       14.4360   29.5520   29.8550 C.ar    0  non0        0.0005
     13  C13       14.2720   28.1650   30.1720 C.ar    0  non0        0.0297
     14  C14       13.7390   27.6350   31.4990 C.3     0  non0        0.1044
     15  N1        14.7810   27.7550   32.5120 N.am    0  non0       -0.2863
     16  C15       14.5070   28.3620   33.7080 C.2     0  non0        0.3047
     17  N2        15.4870   28.4730   34.6580 N.am    0  non0       -0.2683
     18  O3        13.3890   28.8030   33.9280 O.2     0  non0       -0.2525
     19  H15       16.4070   28.1040   34.4610 H       0  non0        0.1564
     20  H14       15.7200   27.4070   32.3810 H       0  non0        0.1512
     21  C16       15.2080   29.0900   35.8770 C.ar    0  non0        0.0516
     22  C17       14.7390   28.3320   36.9640 C.ar    0  non0        0.0156
     23  C18       14.4510   28.9540   38.1840 C.ar    0  non0        0.0127
     24  C19       14.6290   30.3310   38.3310 C.ar    0  non0        0.0578
     25  C20       15.1040   31.0840   37.2530 C.ar    0  non0        0.0127
     26 Cl         14.2640   31.1190   39.8600 Cl      0  non0       -0.0822
     27  C21       15.3990   30.4730   36.0330 C.ar    0  non0        0.0156
     28  C2        12.0490   26.0770   30.5430 C.3     0  non0        0.1428
     29  O1        12.0620   24.8770   29.7900 O.3     0  non0       -0.3818
     30  H4        11.4910   24.9740   29.0250 H       0  non0        0.2104
@<TRIPOS>BOND
     1     6     5   ar
     2     6     7   ar
     3     5     4   ar
     4     8     7   ar
     5     8     9   ar
     6     7    12   ar
     7    30    29    1
     8     9    10   ar
     9     4     3    1
    10     4    13   ar
    11     3     2    1
    12    29    28    1
    13    12    13   ar
    14    12    11   ar
    15    13    14    1
    16    10    11   ar
    17    28     1    1
    18     2     1    1
    19     1    14    1
    20    14    15    1
    21    20    15    1
    22    15    16   am
    23    16    18    2
    24    16    17   am
    25    19    17    1
    26    17    21    1
    27    21    27   ar
    28    21    22   ar
    29    27    25   ar
    30    22    23   ar
    31    25    24   ar
    32    23    24   ar
    33    24    26    1
@<TRIPOS>MOLECULE
17402166_Intermediate
 30 33 0 0 0
SMALL
GASTEIGER

@<TRIPOS>ATOM
      1  C1        15.5810   25.7070   40.8680 C.3     0  non0        0.0952
      2  C3        15.3230   27.1740   40.7930 C.3     0  non0        0.2098
      3  O2        16.3290   27.9520   41.3280 O.3     0  non0       -0.4756
      4  C4        17.6470   27.4620   41.4060 C.ar    0  non0        0.1361
      5  C5        18.5500   28.3270   42.0150 C.ar    0  non0        0.0366
      6  C6        19.9000   28.0080   42.0160 C.ar    0  non0        0.0031
      7  C7        20.3610   26.8600   41.3600 C.ar    0  non0       -0.0001
      8  C8        21.7430   26.6080   41.3220 C.ar    0  non0       -0.0000
      9  C9        22.2550   25.5100   40.6370 C.ar    0  non0       -0.0000
     10  C10       21.3890   24.6580   39.9720 C.ar    0  non0       -0.0000
     11  C11       20.0110   24.8930   40.0100 C.ar    0  non0       -0.0002
     12  C12       19.4450   25.9780   40.7240 C.ar    0  non0        0.0005
     13  C13       18.0420   26.2480   40.8230 C.ar    0  non0        0.0297
     14  C14       16.9420   25.3470   40.2720 C.3     0  non0        0.1044
     15  N1        16.8810   25.5020   38.8240 N.am    0  non0       -0.2863
     16  C15       16.9590   24.4020   38.0130 C.2     0  non0        0.3047
     17  N2        16.9020   24.5490   36.6530 N.am    0  non0       -0.2683
     18  O3        17.0800   23.2890   38.5020 O.2     0  non0       -0.2525
     19  H15       16.8020   25.4760   36.2620 H       0  non0        0.1564
     20  H14       16.7810   26.3980   38.3680 H       0  non0        0.1512
     21  C16       16.9800   23.4280   35.8260 C.ar    0  non0        0.0516
     22  C17       15.8110   22.7480   35.4430 C.ar    0  non0        0.0156
     23  C18       15.8920   21.6170   34.6220 C.ar    0  non0        0.0127
     24  C19       17.1330   21.1600   34.1750 C.ar    0  non0        0.0578
     25  C20       18.2950   21.8420   34.5480 C.ar    0  non0        0.0127
     26 Cl         17.2410   19.7380   33.1460 Cl      0  non0       -0.0822
     27  C21       18.2250   22.9730   35.3640 C.ar    0  non0        0.0156
     28  C2        15.5520   25.2730   42.3360 C.3     0  non0        0.1428
     29  O1        14.7660   26.1840   43.0830 O.3     0  non0       -0.3818
     30  H4        13.9910   25.7330   43.4250 H       0  non0        0.2104
@<TRIPOS>BOND
     1    26    24    1
     2    24    25   ar
     3    24    23   ar
     4    25    27   ar
     5    23    22   ar
     6    27    21   ar
     7    22    21   ar
     8    21    17    1
     9    19    17    1
    10    17    16   am
    11    16    18    2
    12    16    15   am
    13    20    15    1
    14    15    14    1
    15    10    11   ar
    16    10     9   ar
    17    11    12   ar
    18    14    13    1
    19    14     1    1
    20     9     8   ar
    21    12    13   ar
    22    12     7   ar
    23     2     1    1
    24     2     3    1
    25    13     4   ar
    26     1    28    1
    27     8     7   ar
    28     3     4    1
    29     7     6   ar
    30     4     5   ar
    31     5     6   ar
    32    28    29    1
    33    29    30    1
@<TRIPOS>MOLECULE
7975326_Intermediate
 19 21 0 0 0
SMALL
GASTEIGER

@<TRIPOS>ATOM
      1  C1        17.5960   31.3740   26.9920 C.3     0  non0        0.0310
      2  C2        16.3950   31.6010   27.8190 C.ar    0  non0       -0.0216
      3  C3        15.1700   31.8420   27.1930 C.ar    0  non0       -0.0011
      4  C4        14.0290   32.0710   27.9710 C.ar    0  non0        0.0363
      5  C5        14.1140   32.0540   29.3660 C.ar    0  non0        0.1349
      6  C6        15.3470   31.8040   29.9780 C.ar    0  non0        0.0490
      7  C7        15.4250   31.7870   31.3410 C.ar    0  non0        0.0595
      8  C8        16.5300   31.5630   32.0140 C.ar    0  non0        0.0185
      9  C9        16.1880   31.6290   33.3890 C.ar    0  non0        0.0170
     10  C10       16.9270   31.4840   34.5790 C.ar    0  non0        0.0015
     11  C11       16.2820   31.6190   35.8110 C.ar    0  non0        0.0001
     12  C12       14.9200   31.8950   35.8680 C.ar    0  non0        0.0015
     13  C13       14.1660   32.0440   34.7000 C.ar    0  non0        0.0170
     14  C14       14.8210   31.9060   33.4640 C.ar    0  non0        0.0566
     15  N1        14.3600   32.0020   32.1620 N.ar    0  non0       -0.3530
     16  C15       16.4900   31.5740   29.2110 C.ar    0  non0        0.0002
     17  H11       13.4140   32.1940   31.8650 H       0  non0        0.1659
     18  O1        13.0630   32.2660   30.0910 O.3     0  non0       -0.5055
     19  H13       12.2770   32.1970   29.5430 H       0  non0        0.2922
@<TRIPOS>BOND
     1     1     2    1
     2     3     2   ar
     3     3     4   ar
     4     2    16   ar
     5     4     5   ar
     6    16     6   ar
     7     5     6   ar
     8     5    18    1
     9    19    18    1
    10     6     7    1
    11     7     8   ar
    12     7    15   ar
    13    17    15    1
    14     8     9   ar
    15    15    14   ar
    16     9    14   ar
    17     9    10   ar
    18    14    13   ar
    19    10    11   ar
    20    13    12   ar
    21    11    12   ar
@<TRIPOS>MOLECULE
7975326_Intermediate
 19 21 0 0 0
SMALL
GASTEIGER

@<TRIPOS>ATOM
      1  C1        18.1670   27.7860   35.2910 C.3     0  non0        0.0310
      2  C2        18.4070   28.1710   33.8870 C.ar    0  non0       -0.0216
      3  C3        19.6120   27.8140   33.2760 C.ar    0  non0       -0.0011
      4  C4        19.8510   28.1870   31.9490 C.ar    0  non0        0.0363
      5  C5        18.8900   28.9090   31.2360 C.ar    0  non0        0.1349
      6  C6        17.6850   29.2530   31.8590 C.ar    0  non0        0.0490
      7  C7        16.7480   29.9570   31.1580 C.ar    0  non0        0.0595
      8  C8        15.5880   30.3300   31.6470 C.ar    0  non0        0.0185
      9  C9        14.9180   31.0290   30.6110 C.ar    0  non0        0.0170
     10  C10       13.6630   31.6640   30.5250 C.ar    0  non0        0.0015
     11  C11       13.2880   32.2880   29.3330 C.ar    0  non0        0.0001
     12  C12       14.1420   32.2860   28.2360 C.ar    0  non0        0.0015
     13  C13       15.3920   31.6630   28.2970 C.ar    0  non0        0.0170
     14  C14       15.7640   31.0360   29.5000 C.ar    0  non0        0.0566
     15  N1        16.9120   30.3550   29.8660 N.ar    0  non0       -0.3530
     16  C15       17.4360   28.8850   33.1820 C.ar    0  non0        0.0002
     17  H11       17.7250   30.1810   29.2930 H       0  non0        0.1659
     18  O1        19.1070   29.2580   30.0090 O.3     0  non0       -0.5055
     19  H13       18.3530   29.7530   29.6790 H       0  non0        0.2922
@<TRIPOS>BOND
     1    12    13   ar
     2    12    11   ar
     3    13    14   ar
     4    17    15    1
     5    11    10   ar
     6    14    15   ar
     7    14     9   ar
     8    19    18    1
     9    15     7   ar
    10    18     5    1
    11    10     9   ar
    12     9     8   ar
    13     7     8   ar
    14     7     6    1
    15     5     6   ar
    16     5     4   ar
    17     6    16   ar
    18     4     3   ar
    19    16     2   ar
    20     3     2   ar
    21     2     1    1
@<TRIPOS>MOLECULE
7975326_Intermediate
 19 21 0 0 0
SMALL
GASTEIGER

@<TRIPOS>ATOM
      1  C1        18.3660   29.6400   35.3210 C.3     0  non0        0.0310
      2  C2        17.2660   29.0270   34.5520 C.ar    0  non0       -0.0216
      3  C3        16.7700   27.7800   34.9430 C.ar    0  non0       -0.0011
      4  C4        15.7360   27.1870   34.2120 C.ar    0  non0        0.0363
      5  C5        15.1980   27.8380   33.0990 C.ar    0  non0        0.1349
      6  C6        15.6990   29.0890   32.7230 C.ar    0  non0        0.0490
      7  C7        15.1690   29.7230   31.6360 C.ar    0  non0        0.0595
      8  C8        15.5660   30.8960   31.2000 C.ar    0  non0        0.0185
      9  C9        14.7710   31.1970   30.0640 C.ar    0  non0        0.0170
     10  C10       14.7250   32.2880   29.1760 C.ar    0  non0        0.0015
     11  C11       13.8080   32.2800   28.1220 C.ar    0  non0        0.0001
     12  C12       12.9430   31.2050   27.9470 C.ar    0  non0        0.0015
     13  C13       12.9700   30.1100   28.8170 C.ar    0  non0        0.0170
     14  C14       13.8960   30.1250   29.8750 C.ar    0  non0        0.0566
     15  N1        14.1630   29.2080   30.8760 N.ar    0  non0       -0.3530
     16  C15       16.7300   29.6900   33.4470 C.ar    0  non0        0.0002
     17  H11       13.7060   28.3190   31.0250 H       0  non0        0.1659
     18  O1        14.2410   27.2940   32.4170 O.3     0  non0       -0.5055
     19  H13       14.1240   26.3840   32.7010 H       0  non0        0.2922
@<TRIPOS>BOND
     1    12    11   ar
     2    12    13   ar
     3    11    10   ar
     4    13    14   ar
     5    10     9   ar
     6    14     9   ar
     7    14    15   ar
     8     9     8   ar
     9    15    17    1
    10    15     7   ar
    11     8     7   ar
    12     7     6    1
    13    18    19    1
    14    18     5    1
    15     6     5   ar
    16     6    16   ar
    17     5     4   ar
    18    16     2   ar
    19     4     3   ar
    20     2     3   ar
    21     2     1    1
@<TRIPOS>MOLECULE
85201144_Intermediate
 34 37 0 0 0
SMALL
GASTEIGER

@<TRIPOS>ATOM
      1  C9        21.0050   28.4990   39.2990 C.ar    0  non0        0.0599
      2  C10       22.2390   28.6190   38.7120 C.ar    0  non0        0.0338
      3  S2        23.1640   29.7180   39.6530 S.2     0  non0       -0.0868
      4  C18       21.8990   29.9820   40.7810 C.ar    0  non0        0.0298
      5  C19       21.9440   30.8260   41.9110 C.ar    0  non0        0.0096
      6  C20       20.8160   30.9150   42.7220 C.ar    0  non0        0.0374
      7  C21       19.6690   30.1920   42.4330 C.ar    0  non0        0.1388
      8  C22       19.6350   29.3580   41.3110 C.ar    0  non0        0.0376
      9  C23       20.7650   29.2380   40.4570 C.ar    0  non0        0.0139
     10  C8        20.0130   27.6550   38.7490 C.2     0  non0        0.2464
     11  N2        19.0960   28.1640   37.8690 N.am    0  non0       -0.3008
     12  H13       19.1730   29.1460   37.6480 H       0  non0        0.1497
     13  O4        19.9750   26.4750   39.0570 O.2     0  non0       -0.2701
     14  C7        18.0700   27.2930   37.2990 C.3     0  non0        0.0915
     15  C6        18.3870   27.0250   35.8370 C.3     0  non0        0.0427
     16  C5        18.1310   25.5610   35.5220 C.3     0  non0        0.0952
     17  N1        19.3170   24.8070   35.7630 N.am    0  non0       -0.2795
     18  C3        19.6090   23.9000   36.8590 C.2     0  non0        0.2257
     19  C2        21.1120   23.6750   36.7740 C.3     0  non0        0.0870
     20  O5        18.7680   23.4720   37.6190 O.2     0  non0       -0.2749
     21  C1        21.3850   23.7850   35.2810 C.3     0  non0        0.0311
     22  C4        20.4400   24.8950   34.8400 C.3     0  non0        0.0939
     23  C11       22.6950   28.0000   37.5850 C.ar    0  non0        0.0062
     24  C12       23.4660   26.8280   37.6840 C.ar    0  non0        0.0018
     25  C13       23.9440   26.1990   36.5250 C.ar    0  non0        0.0184
     26  C14       23.6550   26.7300   35.2680 C.ar    0  non0        0.1057
     27  C15       22.8820   27.8930   35.1700 C.ar    0  non0        0.0184
     28  C16       22.3990   28.5260   36.3160 C.ar    0  non0        0.0018
     29  S1        24.2540   25.9480   33.8100 S.O2    0  non0        0.0104
     30  C17       25.6460   26.8490   33.1860 C.3     0  non0        0.1816
     31  O1        23.0510   25.9190   32.6630 O.2     0  non0       -0.1686
     32  O2        24.7170   24.3940   34.1660 O.2     0  non0       -0.1686
     33  O3        18.5730   30.2970   43.2410 O.3     0  non0       -0.4714
     34  C24       17.5780   29.3800   42.8110 C.3     0  non0        0.2525
@<TRIPOS>BOND
     1    31    29    2
     2    30    29    1
     3    29    32    2
     4    29    26    1
     5    22    21    1
     6    22    17    1
     7    27    26   ar
     8    27    28   ar
     9    26    25   ar
    10    21    19    1
    11    16    17    1
    12    16    15    1
    13    17    18   am
    14    15    14    1
    15    28    23   ar
    16    25    24   ar
    17    19    18    1
    18    18    20    2
    19    14    11    1
    20    23    24   ar
    21    23     2    1
    22    12    11    1
    23    11    10   am
    24     2     1   ar
    25     2     3   ar
    26    10    13    2
    27    10     1    1
    28     1     9   ar
    29     3     4   ar
    30     9     4   ar
    31     9     8   ar
    32     4     5   ar
    33     8     7   ar
    34     5     6   ar
    35     7     6   ar
    36     7    33    1
    37    34    33    1
@<TRIPOS>MOLECULE
85201144_Intermediate
 34 37 0 0 0
SMALL
GASTEIGER

@<TRIPOS>ATOM
      1  C9        18.6320   23.1770   37.5750 C.ar    0  non0        0.0599
      2  C10       17.3930   23.1150   36.9900 C.ar    0  non0        0.0338
      3  S2        17.3710   21.7490   35.9500 S.2     0  non0       -0.0868
      4  C18       18.9870   21.3090   36.3170 C.ar    0  non0        0.0298
      5  C19       19.6970   20.2070   35.7940 C.ar    0  non0        0.0096
      6  C20       21.0100   20.0020   36.2110 C.ar    0  non0        0.0374
      7  C21       21.6140   20.8580   37.1200 C.ar    0  non0        0.1388
      8  C22       20.9010   21.9460   37.6310 C.ar    0  non0        0.0376
      9  C23       19.5590   22.1910   37.2340 C.ar    0  non0        0.0139
     10  C8        18.9570   24.2030   38.4910 C.2     0  non0        0.2464
     11  N2        19.5570   25.3500   38.0460 N.am    0  non0       -0.3008
     12  H13       19.7450   25.4110   37.0560 H       0  non0        0.1497
     13  O4        18.7030   24.0670   39.6770 O.2     0  non0       -0.2701
     14  C7        19.8940   26.4120   38.9910 C.3     0  non0        0.0915
     15  C6        18.9420   27.5820   38.8000 C.3     0  non0        0.0427
     16  C5        18.5240   28.1240   40.1560 C.3     0  non0        0.0952
     17  N1        17.3550   27.4410   40.6020 N.am    0  non0       -0.2795
     18  C3        17.2310   26.4300   41.6370 C.2     0  non0        0.2257
     19  C2        15.8460   25.8370   41.4250 C.3     0  non0        0.0870
     20  O5        18.1000   26.1890   42.4470 O.2     0  non0       -0.2749
     21  C1        15.0530   27.0190   40.8850 C.3     0  non0        0.0311
     22  C4        16.0620   27.7310   39.9950 C.3     0  non0        0.0939
     23  C11       16.3380   23.9610   37.1700 C.ar    0  non0        0.0062
     24  C12       15.3170   23.6360   38.0820 C.ar    0  non0        0.0018
     25  C13       14.2270   24.5010   38.2560 C.ar    0  non0        0.0184
     26  C14       14.1510   25.6900   37.5310 C.ar    0  non0        0.1057
     27  C15       15.1700   26.0150   36.6280 C.ar    0  non0        0.0184
     28  C16       16.2610   25.1630   36.4480 C.ar    0  non0        0.0018
     29  S1        12.7850   26.7790   37.7430 S.O2    0  non0        0.0104
     30  C17       11.6690   26.5980   36.3790 C.3     0  non0        0.1816
     31  O1        13.3320   28.3460   37.8110 O.2     0  non0       -0.1686
     32  O2        11.9950   26.4060   39.1560 O.2     0  non0       -0.1686
     33  O3        22.9030   20.6390   37.5120 O.3     0  non0       -0.4714
     34  C24       23.2650   21.5890   38.5020 C.3     0  non0        0.2525
@<TRIPOS>BOND
     1     5     6   ar
     2     5     4   ar
     3     3     4   ar
     4     3     2   ar
     5     6     7   ar
     6     4     9   ar
     7    30    29    1
     8    28    27   ar
     9    28    23   ar
    10    27    26   ar
    11     2    23    1
    12     2     1   ar
    13    12    11    1
    14     7    33    1
    15     7     8   ar
    16    23    24   ar
    17     9     1   ar
    18     9     8   ar
    19    33    34    1
    20    26    29    1
    21    26    25   ar
    22     1    10    1
    23    29    31    2
    24    29    32    2
    25    11    10   am
    26    11    14    1
    27    24    25   ar
    28    10    13    2
    29    15    14    1
    30    15    16    1
    31    22    17    1
    32    22    21    1
    33    16    17    1
    34    17    18   am
    35    21    19    1
    36    19    18    1
    37    18    20    2
@<TRIPOS>MOLECULE
85201144_Intermediate
 34 37 0 0 0
SMALL
GASTEIGER

@<TRIPOS>ATOM
      1  C9        14.5660   27.0820   35.6370 C.ar    0  non0        0.0599
      2  C10       13.4500   26.7270   34.9230 C.ar    0  non0        0.0338
      3  S2        12.2840   26.1280   36.0330 S.2     0  non0       -0.0868
      4  C18       13.3020   26.3630   37.3930 C.ar    0  non0        0.0298
      5  C19       12.9880   26.0740   38.7380 C.ar    0  non0        0.0096
      6  C20       13.9430   26.3340   39.7170 C.ar    0  non0        0.0374
      7  C21       15.1800   26.8670   39.3850 C.ar    0  non0        0.1388
      8  C22       15.4810   27.1500   38.0500 C.ar    0  non0        0.0376
      9  C23       14.5340   26.9000   37.0200 C.ar    0  non0        0.0139
     10  C8        15.7060   27.6150   34.9930 C.2     0  non0        0.2464
     11  N2        16.7190   26.7820   34.6010 N.am    0  non0       -0.3008
     12  H13       16.6000   25.7980   34.7950 H       0  non0        0.1497
     13  O4        15.7870   28.8150   34.7870 O.2     0  non0       -0.2701
     14  C7        17.8980   27.3300   33.9350 C.3     0  non0        0.0915
     15  C6        17.8690   26.9570   32.4620 C.3     0  non0        0.0427
     16  C5        18.2980   28.1510   31.6270 C.3     0  non0        0.0952
     17  N1        17.1550   28.9380   31.2980 N.am    0  non0       -0.2795
     18  C3        16.7500   30.2230   31.8400 C.2     0  non0        0.2257
     19  C2        15.3100   30.3930   31.3780 C.3     0  non0        0.0870
     20  O5        17.4760   30.9310   32.5030 O.2     0  non0       -0.2749
     21  C1        15.2970   29.6640   30.0410 C.3     0  non0        0.0311
     22  C4        16.2090   28.4710   30.2930 C.3     0  non0        0.0939
     23  C11       13.2530   26.8130   33.5760 C.ar    0  non0        0.0062
     24  C12       12.5780   27.9190   33.0280 C.ar    0  non0        0.0018
     25  C13       12.3660   28.0010   31.6450 C.ar    0  non0        0.0184
     26  C14       12.8280   26.9900   30.8030 C.ar    0  non0        0.1057
     27  C15       13.5060   25.8920   31.3470 C.ar    0  non0        0.0184
     28  C16       13.7240   25.8020   32.7230 C.ar    0  non0        0.0018
     29  S1        12.5640   27.0840   29.0650 S.O2    0  non0        0.0104
     30  C17       11.2340   26.0050   28.6110 C.3     0  non0        0.1816
     31  O1        13.9490   26.6270   28.2690 O.2     0  non0       -0.1686
     32  O2        12.1760   28.6450   28.6490 O.2     0  non0       -0.1686
     33  O3        16.1020   27.1110   40.3620 O.3     0  non0       -0.4714
     34  C24       17.1970   27.8270   39.8110 C.3     0  non0        0.2525
@<TRIPOS>BOND
     1    31    29    2
     2    30    29    1
     3    32    29    2
     4    29    26    1
     5    21    22    1
     6    21    19    1
     7    22    17    1
     8    26    27   ar
     9    26    25   ar
    10    17    16    1
    11    17    18   am
    12    27    28   ar
    13    19    18    1
    14    16    15    1
    15    25    24   ar
    16    18    20    2
    17    15    14    1
    18    28    23   ar
    19    24    23   ar
    20    23     2    1
    21    14    11    1
    22    11    12    1
    23    11    10   am
    24    13    10    2
    25     2     1   ar
    26     2     3   ar
    27    10     1    1
    28     1     9   ar
    29     3     4   ar
    30     9     4   ar
    31     9     8   ar
    32     4     5   ar
    33     8     7   ar
    34     5     6   ar
    35     7     6   ar
    36     7    33    1
    37    34    33    1
@<TRIPOS>MOLECULE
24297861_Intermediate
 33 36 0 0 0
SMALL
GASTEIGER

@<TRIPOS>ATOM
      1  C8        15.6190   23.7920   36.9830 C.ar    0  non0        0.0009
      2  C9        16.3880   23.3210   38.0480 C.ar    0  non0        0.0189
      3  C10       16.8410   24.2340   38.9830 C.ar    0  non0        0.0818
      4  C11       17.6200   23.7740   40.0840 C.ar    0  non0        0.0177
      5  C12       17.9240   22.4090   40.2160 C.ar    0  non0        0.0015
      6  C13       18.6780   21.9550   41.3050 C.ar    0  non0        0.0000
      7  C14       19.1400   22.8590   42.2660 C.ar    0  non0        0.0000
      8  C15       18.8440   24.2200   42.1300 C.ar    0  non0        0.0000
      9  C16       18.0930   24.6810   41.0460 C.ar    0  non0        0.0015
     10  N1        16.5910   25.5580   38.9220 N.ar    0  non0       -0.2394
     11  C17       15.8640   26.0180   37.8920 C.ar    0  non0        0.1045
     12  C18       15.3680   25.1660   36.9040 C.ar    0  non0        0.0204
     13  C19       14.6120   25.6840   35.8270 C.3     0  non0        0.1376
     14  N2        13.8570   26.2020   34.7490 N.3     0  non0       -0.1261
     15  S1        15.4940   27.7260   37.7270 S.3     0  non0       -0.0854
     16  C20       14.5430   27.8330   39.2780 C.3     0  non0        0.1487
     17  C21       13.4630   26.8050   39.2710 C.2     0  non0        0.2386
     18  N3        13.5300   25.7360   40.1240 N.am    0  non0       -0.2660
     19  H16       14.3290   25.6880   40.7390 H       0  non0        0.1564
     20  O2        12.5180   26.9170   38.5040 O.2     0  non0       -0.2738
     21  C22       12.4800   24.7360   40.1170 C.ar    0  non0        0.1760
     22  C23       12.5510   23.6050   39.3850 C.ar    0  non0        0.0734
     23  C24       11.3440   22.9840   39.6340 C.ar    0  non0        0.1562
     24  C25       10.7690   21.7490   39.1280 C.3     0  non0        0.0754
     25  O1        10.6310   23.7270   40.5200 O.2     0  non0       -0.3565
     26  N4        11.3400   24.8620   40.8500 N.ar    0  non0       -0.0621
     27  C5        15.1010   22.8970   36.0010 C.ar    0  non0       -0.0002
     28  C4        15.8380   22.6030   34.8500 C.ar    0  non0       -0.0003
     29  C3        15.3250   21.7220   33.8910 C.ar    0  non0       -0.0043
     30  C2        14.0740   21.1350   34.0920 C.ar    0  non0       -0.0218
     31  C1        13.5460   20.1970   33.0830 C.3     0  non0        0.0310
     32  C7        13.3260   21.4280   35.2340 C.ar    0  non0       -0.0043
     33  C6        13.8460   22.3060   36.1850 C.ar    0  non0       -0.0003
@<TRIPOS>BOND
     1    31    30    1
     2    29    30   ar
     3    29    28   ar
     4    30    32   ar
     5    14    13    1
     6    28    27   ar
     7    32    33   ar
     8    13    12    1
     9    27    33   ar
    10    27     1    1
    11    12     1   ar
    12    12    11   ar
    13     1     2   ar
    14    15    11    1
    15    15    16    1
    16    11    10   ar
    17     2     3   ar
    18    20    17    2
    19    10     3   ar
    20     3     4    1
    21    24    23    1
    22    17    16    1
    23    17    18   am
    24    22    23   ar
    25    22    21   ar
    26    23    25   ar
    27     4     5   ar
    28     4     9   ar
    29    21    18    1
    30    21    26   ar
    31    18    19    1
    32     5     6   ar
    33    25    26   ar
    34     9     8   ar
    35     6     7   ar
    36     8     7   ar
@<TRIPOS>MOLECULE
24297861_Intermediate
 33 36 0 0 0
SMALL
GASTEIGER

@<TRIPOS>ATOM
      1  C8        20.4870   25.5380   35.8530 C.ar    0  non0        0.0009
      2  C9        20.2060   26.8950   36.0170 C.ar    0  non0        0.0189
      3  C10       21.0620   27.6500   36.7980 C.ar    0  non0        0.0818
      4  C11       20.8010   29.0410   36.9720 C.ar    0  non0        0.0177
      5  C12       19.6860   29.6350   36.3570 C.ar    0  non0        0.0015
      6  C13       19.4370   31.0030   36.5160 C.ar    0  non0        0.0000
      7  C14       20.2930   31.7870   37.2950 C.ar    0  non0        0.0000
      8  C15       21.3990   31.1940   37.9140 C.ar    0  non0        0.0000
      9  C16       21.6540   29.8290   37.7610 C.ar    0  non0        0.0015
     10  N1        22.1500   27.1510   37.4200 N.ar    0  non0       -0.2394
     11  C17       22.4150   25.8430   37.2770 C.ar    0  non0        0.1045
     12  C18       21.6040   25.0080   36.5070 C.ar    0  non0        0.0204
     13  C19       21.9070   23.6330   36.3840 C.3     0  non0        0.1376
     14  N2        22.2090   22.2560   36.2610 N.3     0  non0       -0.1261
     15  S1        23.8040   25.1040   38.0550 S.3     0  non0       -0.0854
     16  C20       25.0380   26.1010   37.1580 C.3     0  non0        0.1487
     17  C21       24.8110   25.9690   35.6900 C.2     0  non0        0.2386
     18  N3        24.3510   27.0400   34.9710 N.am    0  non0       -0.2660
     19  H16       24.1800   27.8960   35.4770 H       0  non0        0.1564
     20  O2        25.0350   24.9070   35.1290 O.2     0  non0       -0.2738
     21  C22       24.1290   26.9130   33.5430 C.ar    0  non0        0.1760
     22  C23       22.9270   26.6050   33.0130 C.ar    0  non0        0.0734
     23  C24       23.1800   26.5400   31.6580 C.ar    0  non0        0.1562
     24  C25       22.3240   26.2170   30.5290 C.3     0  non0        0.0754
     25  O1        24.4830   26.8460   31.4290 O.2     0  non0       -0.3565
     26  N4        25.1190   27.0920   32.6270 N.ar    0  non0       -0.0621
     27  C5        19.6560   24.7120   35.0390 C.ar    0  non0       -0.0002
     28  C4        18.5670   24.0360   35.5940 C.ar    0  non0       -0.0003
     29  C3        17.7550   23.2280   34.7890 C.ar    0  non0       -0.0043
     30  C2        18.0370   23.1050   33.4270 C.ar    0  non0       -0.0218
     31  C1        17.1690   22.2620   32.5830 C.3     0  non0        0.0310
     32  C7        19.1280   23.7690   32.8640 C.ar    0  non0       -0.0043
     33  C6        19.9310   24.5730   33.6740 C.ar    0  non0       -0.0003
@<TRIPOS>BOND
     1    24    23    1
     2    25    23   ar
     3    25    26   ar
     4    23    22   ar
     5    31    30    1
     6    26    21   ar
     7    32    30   ar
     8    32    33   ar
     9    22    21   ar
    10    30    29   ar
    11    21    18    1
    12    33    27   ar
    13    29    28   ar
    14    18    19    1
    15    18    17   am
    16    27    28   ar
    17    27     1    1
    18    20    17    2
    19    17    16    1
    20     1     2   ar
    21     1    12   ar
    22     2     3   ar
    23    14    13    1
    24     5     6   ar
    25     5     4   ar
    26    13    12    1
    27    12    11   ar
    28     6     7   ar
    29     3     4    1
    30     3    10   ar
    31     4     9   ar
    32    16    15    1
    33    11    10   ar
    34    11    15    1
    35     7     8   ar
    36     9     8   ar
@<TRIPOS>MOLECULE
24297861_Intermediate
 33 36 0 0 0
SMALL
GASTEIGER

@<TRIPOS>ATOM
      1  C8        19.7540   23.9100   29.0800 C.ar    0  non0        0.0009
      2  C9        21.0270   23.4980   28.6860 C.ar    0  non0        0.0189
      3  C10       22.1200   24.1920   29.1740 C.ar    0  non0        0.0818
      4  C11       23.4320   23.7830   28.7920 C.ar    0  non0        0.0177
      5  C12       23.6100   22.6880   27.9290 C.ar    0  non0        0.0015
      6  C13       24.8980   22.2780   27.5660 C.ar    0  non0        0.0000
      7  C14       26.0160   22.9600   28.0530 C.ar    0  non0        0.0000
      8  C15       25.8390   24.0550   28.9060 C.ar    0  non0        0.0000
      9  C16       24.5570   24.4720   29.2730 C.ar    0  non0        0.0015
     10  N1        22.0280   25.2510   30.0030 N.ar    0  non0       -0.2394
     11  C17       20.8050   25.6600   30.3730 C.ar    0  non0        0.1045
     12  C18       19.6490   25.0180   29.9280 C.ar    0  non0        0.0204
     13  C19       18.3740   25.4790   30.3300 C.3     0  non0        0.1376
     14  N2        17.0990   25.9410   30.7320 N.3     0  non0       -0.1261
     15  S1        20.5870   27.0340   31.4440 S.3     0  non0       -0.0854
     16  C20       21.4540   26.2740   32.8560 C.3     0  non0        0.1487
     17  C21       20.8390   24.9500   33.1620 C.2     0  non0        0.2386
     18  N3        21.5420   23.7990   32.9270 N.am    0  non0       -0.2660
     19  H16       22.4710   23.8960   32.5460 H       0  non0        0.1564
     20  O2        19.7090   24.8930   33.6240 O.2     0  non0       -0.2738
     21  C22       20.9440   22.5110   33.2250 C.ar    0  non0        0.1760
     22  C23       20.3070   21.7670   32.2970 C.ar    0  non0        0.0734
     23  C24       19.8630   20.6730   33.0100 C.ar    0  non0        0.1562
     24  C25       19.0770   19.5160   32.6170 C.3     0  non0        0.0754
     25  O1        20.2790   20.7790   34.2990 O.2     0  non0       -0.3565
     26  N4        20.9800   21.9530   34.4660 N.ar    0  non0       -0.0621
     27  C5        18.5890   23.2190   28.6310 C.ar    0  non0       -0.0002
     28  C4        17.9420   23.6100   27.4560 C.ar    0  non0       -0.0003
     29  C3        16.8010   22.9280   27.0200 C.ar    0  non0       -0.0043
     30  C2        16.3150   21.8500   27.7640 C.ar    0  non0       -0.0218
     31  C1        15.1180   21.1270   27.2910 C.3     0  non0        0.0310
     32  C7        16.9490   21.4570   28.9430 C.ar    0  non0       -0.0043
     33  C6        18.0870   22.1430   29.3690 C.ar    0  non0       -0.0003
@<TRIPOS>BOND
     1    29    28   ar
     2    29    30   ar
     3    31    30    1
     4    28    27   ar
     5     6     5   ar
     6     6     7   ar
     7    30    32   ar
     8     5     4   ar
     9     7     8   ar
    10    27     1    1
    11    27    33   ar
    12     2     1   ar
    13     2     3   ar
    14     4     3    1
    15     4     9   ar
    16     8     9   ar
    17    32    33   ar
    18     1    12   ar
    19     3    10   ar
    20    12    13    1
    21    12    11   ar
    22    10    11   ar
    23    13    14    1
    24    11    15    1
    25    15    16    1
    26    22    23   ar
    27    22    21   ar
    28    19    18    1
    29    24    23    1
    30    16    17    1
    31    18    17   am
    32    18    21    1
    33    23    25   ar
    34    17    20    2
    35    21    26   ar
    36    25    26   ar
@<TRIPOS>MOLECULE
17408593_Intermediate
 31 34 0 0 0
SMALL
GASTEIGER

@<TRIPOS>ATOM
      1  C3        16.4780   31.3070   30.3300 C.ar    0  non0        0.1616
      2  N2        17.0470   30.2660   29.6620 N.ar    0  non0       -0.2072
      3  C4        17.9180   29.6290   30.4850 C.ar    0  non0        0.1537
      4  C5        17.9630   30.2230   31.7350 C.ar    0  non0        0.1004
      5  C6        18.7940   29.7340   32.7510 C.ar    0  non0        0.1569
      6  C7        19.5920   28.6020   32.4450 C.ar    0  non0        0.0765
      7  C8        20.5120   28.0170   33.4800 C.3     0  non0        0.0761
      8  C9        20.4740   28.7440   34.7940 C.2     0  non0        0.0315
      9  C10       21.3200   28.2290   35.7920 C.3     0  non0        0.1363
     10  N3        22.1650   27.7150   36.7910 N.3     0  non0       -0.1264
     11  C11       19.6890   29.8120   35.0080 C.2     0  non0        0.1867
     12  O1        18.8100   30.3770   34.0290 O.3     0  non0       -0.4405
     13  C19       19.5190   28.0230   31.1530 C.ar    0  non0        0.2582
     14  N5        18.6860   28.5440   30.1990 N.ar    0  non0       -0.3060
     15  O2        20.2230   26.9910   30.8180 O.2     0  non0       -0.2674
     16  S1        17.0150   31.3770   31.7320 S.2     0  non0       -0.0471
     17  H17       18.6370   28.1260   29.2810 H       0  non0        0.1704
     18  C12       21.9010   28.0650   32.9550 C.ar    0  non0       -0.0142
     19  C13       22.6780   26.8960   32.8940 C.ar    0  non0       -0.0040
     20  C14       23.9900   26.9440   32.4110 C.ar    0  non0       -0.0046
     21  C15       24.5370   28.1570   31.9810 C.ar    0  non0       -0.0219
     22  C16       25.9210   28.2140   31.4730 C.3     0  non0        0.0310
     23  C17       23.7620   29.3200   32.0360 C.ar    0  non0       -0.0046
     24  C18       22.4510   29.2810   32.5140 C.ar    0  non0       -0.0040
     25  N4        19.8680   30.2330   36.2430 N.pl3   0  non0       -0.3292
     26  H8        20.6990   30.7530   36.4840 H       0  non0        0.1451
     27  H9        19.1730   30.0360   36.9500 H       0  non0        0.1451
     28  N1        15.5010   32.2770   29.9060 N.pl3   0  non0       -0.3130
     29  H6        15.7460   32.9460   29.1900 H       0  non0        0.1487
     30  C2        14.1730   32.2880   30.5090 C.3     0  non0        0.0887
     31  C1        13.4590   30.9950   30.1830 C.3     0  non0        0.0230
@<TRIPOS>BOND
     1    29    28    1
     2    17    14    1
     3     2     1   ar
     4     2     3   ar
     5    28     1    1
     6    28    30    1
     7    31    30    1
     8    14     3   ar
     9    14    13   ar
    10     1    16   ar
    11     3     4   ar
    12    15    13    2
    13    13     6   ar
    14    22    21    1
    15    16     4   ar
    16     4     5   ar
    17    21    23   ar
    18    21    20   ar
    19    23    24   ar
    20    20    19   ar
    21     6     5   ar
    22     6     7    1
    23    24    18   ar
    24     5    12    1
    25    19    18   ar
    26    18     7    1
    27     7     8    1
    28    12    11    1
    29     8    11    2
    30     8     9    1
    31    11    25    1
    32     9    10    1
    33    25    26    1
    34    25    27    1
@<TRIPOS>MOLECULE
17408593_Intermediate
 31 34 0 0 0
SMALL
GASTEIGER

@<TRIPOS>ATOM
      1  C3        15.2900   29.7280   30.1920 C.ar    0  non0        0.1616
      2  N2        14.5410   29.4810   31.3010 N.ar    0  non0       -0.2072
      3  C4        15.3630   29.3510   32.3750 C.ar    0  non0        0.1537
      4  C5        16.6920   29.5080   32.0190 C.ar    0  non0        0.1004
      5  C6        17.7210   29.4160   32.9650 C.ar    0  non0        0.1569
      6  C7        17.3440   29.1540   34.3070 C.ar    0  non0        0.0765
      7  C8        18.3880   29.0390   35.3820 C.3     0  non0        0.0761
      8  C9        19.7900   29.2280   34.8780 C.2     0  non0        0.0315
      9  C10       20.8000   29.1300   35.8520 C.3     0  non0        0.1363
     10  N3        21.8090   29.0320   36.8240 N.3     0  non0       -0.1264
     11  C11       20.0680   29.4750   33.5870 C.2     0  non0        0.1867
     12  O1        19.0810   29.5850   32.5560 O.3     0  non0       -0.4405
     13  C19       15.9720   28.9990   34.6310 C.ar    0  non0        0.2582
     14  N5        15.0090   29.1000   33.6630 N.ar    0  non0       -0.3060
     15  O2        15.5700   28.7580   35.8370 O.2     0  non0       -0.2674
     16  S1        16.7490   29.7700   30.5500 S.2     0  non0       -0.0471
     17  H17       14.0330   28.9900   33.9000 H       0  non0        0.1704
     18  C12       18.2860   27.6900   35.9950 C.ar    0  non0       -0.0142
     19  C13       18.3550   26.5390   35.1920 C.ar    0  non0       -0.0040
     20  C14       18.2480   25.2680   35.7680 C.ar    0  non0       -0.0046
     21  C15       18.0760   25.1350   37.1490 C.ar    0  non0       -0.0219
     22  C16       17.9590   23.7970   37.7620 C.3     0  non0        0.0310
     23  C17       18.0130   26.2810   37.9490 C.ar    0  non0       -0.0046
     24  C18       18.1210   27.5520   37.3840 C.ar    0  non0       -0.0040
     25  N4        21.3730   29.5930   33.4460 N.pl3   0  non0       -0.3292
     26  H8        21.9550   28.7680   33.4250 H       0  non0        0.1451
     27  H9        21.7900   30.5080   33.3590 H       0  non0        0.1451
     28  N1        14.9000   29.9410   28.8210 N.pl3   0  non0       -0.3130
     29  H6        14.4820   29.1830   28.3010 H       0  non0        0.1487
     30  C2        15.1090   31.2430   28.1960 C.3     0  non0        0.0887
     31  C1        14.2720   32.2840   28.9050 C.3     0  non0        0.0230
@<TRIPOS>BOND
     1    30    28    1
     2    30    31    1
     3    29    28    1
     4    28     1    1
     5     1    16   ar
     6     1     2   ar
     7    16     4   ar
     8     2     3   ar
     9     4     3   ar
    10     4     5   ar
    11     3    14   ar
    12    12     5    1
    13    12    11    1
    14     5     6   ar
    15    27    25    1
    16    26    25    1
    17    25    11    1
    18    11     8    2
    19    14    17    1
    20    14    13   ar
    21     6    13   ar
    22     6     7    1
    23    13    15    2
    24     8     7    1
    25     8     9    1
    26    19    20   ar
    27    19    18   ar
    28     7    18    1
    29    20    21   ar
    30     9    10    1
    31    18    24   ar
    32    21    22    1
    33    21    23   ar
    34    24    23   ar
@<TRIPOS>MOLECULE
17408593_Intermediate
 31 34 0 0 0
SMALL
GASTEIGER

@<TRIPOS>ATOM
      1  C3        17.9500   23.2430   31.3320 C.ar    0  non0        0.1616
      2  N2        18.6780   24.2340   30.7480 N.ar    0  non0       -0.2072
      3  C4        18.2680   25.4350   31.2320 C.ar    0  non0        0.1537
      4  C5        17.2510   25.2880   32.1590 C.ar    0  non0        0.1004
      5  C6        16.6710   26.3940   32.7940 C.ar    0  non0        0.1569
      6  C7        17.1700   27.6750   32.4450 C.ar    0  non0        0.0765
      7  C8        16.6010   28.9120   33.0810 C.3     0  non0        0.0761
      8  C9        15.5050   28.6280   34.0680 C.2     0  non0        0.0315
      9  C10       14.9430   29.7590   34.6880 C.3     0  non0        0.1363
     10  N3        14.3820   30.8880   35.3070 N.3     0  non0       -0.1264
     11  C11       15.0860   27.3830   34.3460 C.2     0  non0        0.1867
     12  O1        15.6210   26.1980   33.7460 O.3     0  non0       -0.4405
     13  C19       18.2130   27.7830   31.4910 C.ar    0  non0        0.2582
     14  N5        18.7430   26.6660   30.9040 N.ar    0  non0       -0.3060
     15  O2        18.7080   28.9250   31.1350 O.2     0  non0       -0.2674
     16  S1        16.9600   23.8300   32.2990 S.2     0  non0       -0.0471
     17  H17       19.4860   26.7490   30.2250 H       0  non0        0.1704
     18  C12       16.0530   29.7820   32.0080 C.ar    0  non0       -0.0142
     19  C13       15.1060   29.2790   31.1010 C.ar    0  non0       -0.0040
     20  C14       14.5990   30.0960   30.0840 C.ar    0  non0       -0.0046
     21  C15       15.0290   31.4210   29.9660 C.ar    0  non0       -0.0219
     22  C16       14.5000   32.2860   28.8940 C.3     0  non0        0.0310
     23  C17       15.9680   31.9230   30.8730 C.ar    0  non0       -0.0046
     24  C18       16.4770   31.1170   31.8920 C.ar    0  non0       -0.0040
     25  N4        14.1220   27.4460   35.2420 N.pl3   0  non0       -0.3292
     26  H8        14.2890   27.1320   36.1870 H       0  non0        0.1451
     27  H9        13.2160   27.8120   34.9840 H       0  non0        0.1451
     28  N1        17.9980   21.8130   31.1610 N.pl3   0  non0       -0.3130
     29  H6        17.7290   21.4100   30.2750 H       0  non0        0.1487
     30  C2        18.4340   20.9610   32.2630 C.3     0  non0        0.0887
     31  C1        19.8770   21.2650   32.5970 C.3     0  non0        0.0230
@<TRIPOS>BOND
     1    22    21    1
     2    21    20   ar
     3    21    23   ar
     4    20    19   ar
     5    17    14    1
     6    29    28    1
     7     2     3   ar
     8     2     1   ar
     9    23    24   ar
    10    14     3   ar
    11    14    13   ar
    12    19    18   ar
    13    15    13    2
    14    28     1    1
    15    28    30    1
    16     3     4   ar
    17     1    16   ar
    18    13     6   ar
    19    24    18   ar
    20    18     7    1
    21     4    16   ar
    22     4     5   ar
    23    30    31    1
    24     6     5   ar
    25     6     7    1
    26     5    12    1
    27     7     8    1
    28    12    11    1
    29     8    11    2
    30     8     9    1
    31    11    25    1
    32     9    10    1
    33    27    25    1
    34    25    26    1
@<TRIPOS>MOLECULE
26731583_Intermediate
 26 29 0 0 0
SMALL
GASTEIGER

@<TRIPOS>ATOM
      1  C2        14.8350   26.2740   28.9440 C.ar    0  non0        0.0882
      2  C3        14.0980   27.4120   28.6980 C.ar    0  non0        0.0963
      3  C4        12.6470   27.4650   28.6440 C.ar    0  non0        0.3474
      4  O1        11.9330   26.5180   28.8900 O.2     0  non0       -0.2444
      5  O2        12.1110   28.7120   28.2820 O.2     0  non0       -0.4210
      6  C5        12.9060   29.8850   28.1640 C.ar    0  non0        0.1487
      7  C6        12.1990   31.0730   27.9690 C.ar    0  non0        0.0376
      8  C7        12.8920   32.2790   27.9490 C.ar    0  non0        0.0031
      9  C8        14.2720   32.2880   28.1520 C.ar    0  non0        0.0002
     10  C9        14.9730   31.0900   28.3420 C.ar    0  non0        0.0031
     11  C10       14.3040   29.8650   28.3010 C.ar    0  non0        0.0354
     12  C11       14.9290   28.5600   28.4810 C.ar    0  non0        0.0174
     13  C12       16.2650   28.2070   28.3810 C.ar    0  non0        0.0370
     14  S1        16.5070   26.5750   28.8220 S.2     0  non0       -0.0715
     15  N2        14.2650   24.9910   29.2670 N.am    0  non0       -0.2628
     16  C1        14.1760   24.5920   30.5740 C.2     0  non0        0.3085
     17  N1        13.6360   23.3720   30.8820 N.am    0  non0       -0.2680
     18  O3        14.5800   25.3240   31.4640 O.2     0  non0       -0.2521
     19  H1        13.3070   22.7780   30.1350 H       0  non0        0.1564
     20  H2        13.9200   24.3560   28.5610 H       0  non0        0.1569
     21  C13       13.5460   22.9660   32.2140 C.ar    0  non0        0.0516
     22  C14       14.6000   22.2520   32.8100 C.ar    0  non0        0.0147
     23  C15       14.5030   21.8340   34.1420 C.ar    0  non0        0.0013
     24  C16       13.3610   22.1270   34.8910 C.ar    0  non0        0.0001
     25  C17       12.3150   22.8440   34.2980 C.ar    0  non0        0.0013
     26  C18       12.4010   23.2670   32.9720 C.ar    0  non0        0.0147
@<TRIPOS>BOND
     1     8     7   ar
     2     8     9   ar
     3     7     6   ar
     4     9    10   ar
     5     6     5   ar
     6     6    11   ar
     7     5     3   ar
     8    11    10   ar
     9    11    12   ar
    10    13    12   ar
    11    13    14   ar
    12    12     2   ar
    13    20    15    1
    14     3     2   ar
    15     3     4    2
    16     2     1   ar
    17    14     1   ar
    18     1    15    1
    19    15    16   am
    20    19    17    1
    21    16    17   am
    22    16    18    2
    23    17    21    1
    24    21    22   ar
    25    21    26   ar
    26    22    23   ar
    27    26    25   ar
    28    23    24   ar
    29    25    24   ar
@<TRIPOS>MOLECULE
26731583_Intermediate
 26 29 0 0 0
SMALL
GASTEIGER

@<TRIPOS>ATOM
      1  C2        17.8090   28.3450   30.1750 C.ar    0  non0        0.0882
      2  C3        18.2680   28.3210   31.4740 C.ar    0  non0        0.0963
      3  C4        18.4440   29.4940   32.3130 C.ar    0  non0        0.3474
      4  O1        18.1290   30.6130   31.9740 O.2     0  non0       -0.2444
      5  O2        19.0160   29.2430   33.5710 O.2     0  non0       -0.4210
      6  C5        19.2310   27.9290   34.0700 C.ar    0  non0        0.1487
      7  C6        19.6440   27.8510   35.4010 C.ar    0  non0        0.0376
      8  C7        19.7740   26.6020   35.9990 C.ar    0  non0        0.0031
      9  C8        19.4650   25.4510   35.2730 C.ar    0  non0        0.0002
     10  C9        19.0570   25.5390   33.9370 C.ar    0  non0        0.0031
     11  C10       18.9820   26.7810   33.3000 C.ar    0  non0        0.0354
     12  C11       18.5740   26.9920   31.9160 C.ar    0  non0        0.0174
     13  C12       18.5170   26.0840   30.8710 C.ar    0  non0        0.0370
     14  S1        17.8380   26.7930   29.4740 S.2     0  non0       -0.0715
     15  N2        17.3590   29.5320   29.4940 N.am    0  non0       -0.2628
     16  C1        16.0210   29.8160   29.4260 C.2     0  non0        0.3085
     17  N1        15.5920   30.9430   28.7790 N.am    0  non0       -0.2680
     18  O3        15.2110   29.0620   29.9430 O.2     0  non0       -0.2521
     19  H1        16.2740   31.5560   28.3560 H       0  non0        0.1564
     20  H2        17.9960   30.1810   29.0540 H       0  non0        0.1569
     21  C13       14.2280   31.2310   28.7100 C.ar    0  non0        0.0516
     22  C14       13.6160   32.0040   29.7120 C.ar    0  non0        0.0147
     23  C15       12.2460   32.2820   29.6480 C.ar    0  non0        0.0013
     24  C16       11.4780   31.7980   28.5870 C.ar    0  non0        0.0001
     25  C17       12.0900   31.0340   27.5870 C.ar    0  non0        0.0013
     26  C18       13.4550   30.7530   27.6390 C.ar    0  non0        0.0147
@<TRIPOS>BOND
     1    25    26   ar
     2    25    24   ar
     3    26    21   ar
     4    19    17    1
     5    24    23   ar
     6    21    17    1
     7    21    22   ar
     8    17    16   am
     9    20    15    1
    10    16    15   am
    11    16    18    2
    12    14     1   ar
    13    14    13   ar
    14    15     1    1
    15    23    22   ar
    16     1     2   ar
    17    13    12   ar
    18     2    12   ar
    19     2     3   ar
    20    12    11   ar
    21     4     3    2
    22     3     5   ar
    23    11    10   ar
    24    11     6   ar
    25     5     6   ar
    26    10     9   ar
    27     6     7   ar
    28     9     8   ar
    29     7     8   ar
@<TRIPOS>MOLECULE
26731583_Intermediate
 26 29 0 0 0
SMALL
GASTEIGER

@<TRIPOS>ATOM
      1  C2        14.4560   28.4090   33.0390 C.ar    0  non0        0.0882
      2  C3        14.4040   29.3650   32.0480 C.ar    0  non0        0.0963
      3  C4        15.5100   30.2280   31.6710 C.ar    0  non0        0.3474
      4  O1        16.6220   30.1390   32.1430 O.2     0  non0       -0.2444
      5  O2        15.2030   31.1960   30.6990 O.2     0  non0       -0.4210
      6  C5        13.9670   31.2140   29.9960 C.ar    0  non0        0.1487
      7  C6        13.8880   32.1290   28.9450 C.ar    0  non0        0.0376
      8  C7        12.7540   32.1380   28.1380 C.ar    0  non0        0.0031
      9  C8        11.7300   31.2180   28.3710 C.ar    0  non0        0.0002
     10  C9        11.8190   30.3070   29.4310 C.ar    0  non0        0.0031
     11  C10       12.9190   30.3260   30.2910 C.ar    0  non0        0.0354
     12  C11       13.1150   29.4310   31.4250 C.ar    0  non0        0.0174
     13  C12       12.1860   28.6550   32.0990 C.ar    0  non0        0.0370
     14  S1        12.9390   27.6700   33.2720 S.2     0  non0       -0.0715
     15  N2        15.6430   28.0740   33.7840 N.am    0  non0       -0.2628
     16  C1        16.3990   26.9940   33.4160 C.2     0  non0        0.3085
     17  N1        17.5270   26.6740   34.1230 N.am    0  non0       -0.2680
     18  O3        16.0660   26.3150   32.4560 O.2     0  non0       -0.2521
     19  H1        17.7880   27.2440   34.9140 H       0  non0        0.1564
     20  H2        15.9520   28.6090   34.5830 H       0  non0        0.1569
     21  C13       18.2960   25.5720   33.7480 C.ar    0  non0        0.0516
     22  C14       19.3480   25.7230   32.8270 C.ar    0  non0        0.0147
     23  C15       20.1100   24.6150   32.4420 C.ar    0  non0        0.0013
     24  C16       19.8370   23.3520   32.9720 C.ar    0  non0        0.0001
     25  C17       18.7940   23.2050   33.8940 C.ar    0  non0        0.0013
     26  C18       18.0280   24.3030   34.2870 C.ar    0  non0        0.0147
@<TRIPOS>BOND
     1     8     9   ar
     2     8     7   ar
     3     9    10   ar
     4     7     6   ar
     5    10    11   ar
     6     6    11   ar
     7     6     5   ar
     8    11    12   ar
     9     5     3   ar
    10    12     2   ar
    11    12    13   ar
    12     3     2   ar
    13     3     4    2
    14     2     1   ar
    15    13    14   ar
    16    23    22   ar
    17    23    24   ar
    18    18    16    2
    19    22    21   ar
    20    24    25   ar
    21     1    14   ar
    22     1    15    1
    23    16    15   am
    24    16    17   am
    25    21    17    1
    26    21    26   ar
    27    15    20    1
    28    25    26   ar
    29    17    19    1
@<TRIPOS>MOLECULE
14741545_Accepted
 20 22 0 0 0
SMALL
GASTEIGER

@<TRIPOS>ATOM
      1  C1        20.7920   27.3530   30.8540 C.ar    0  non0        0.0392
      2  C2        22.1860   27.5590   30.8220 C.ar    0  non0        0.0741
      3  N1        22.7050   28.7680   30.4130 N.ar    0  non0       -0.3496
      4  C3        21.8960   29.8100   30.0230 C.ar    0  non0        0.0934
      5  C4        20.5130   29.6180   30.0510 C.ar    0  non0        0.1176
      6  C5        19.9790   28.4170   30.4570 C.ar    0  non0        0.1035
      7  N2        18.6400   28.4980   30.3900 N.ar    0  non0       -0.2250
      8  C6        18.3700   29.7510   29.9420 C.ar    0  non0        0.1624
      9  N3        19.5110   30.4530   29.7290 N.ar    0  non0       -0.2236
     10  H3        23.7070   28.8940   30.3980 H       0  non0        0.1661
     11  C7        17.0850   30.3660   29.6890 C.ar    0  non0        0.0390
     12  C8        17.0120   31.6830   29.2040 C.ar    0  non0        0.0064
     13  C9        15.7690   32.2810   28.9720 C.ar    0  non0        0.0401
     14  C10       14.5900   31.5720   29.2170 C.ar    0  non0        0.1724
     15  C11       14.6630   30.2590   29.6940 C.ar    0  non0        0.1725
     16  C12       15.8980   29.6520   29.9280 C.ar    0  non0        0.0431
     17  O2        13.3730   32.1510   28.9950 O.3     0  non0       -0.4684
     18  C14       13.1540   32.2740   27.5990 C.3     0  non0        0.2526
     19  O1        13.5080   29.5700   29.9310 O.3     0  non0       -0.4684
     20  C13       13.3450   28.5630   28.9460 C.3     0  non0        0.2526
@<TRIPOS>BOND
     1    18    17    1
     2    20    19    1
     3    13    12   ar
     4    13    14   ar
     5    17    14    1
     6    12    11   ar
     7    14    15   ar
     8    11    16   ar
     9    11     8    1
    10    15    16   ar
    11    15    19    1
    12     9     8   ar
    13     9     5   ar
    14     8     7   ar
    15     4     5   ar
    16     4     3   ar
    17     5     6   ar
    18     7     6   ar
    19    10     3    1
    20     3     2   ar
    21     6     1   ar
    22     2     1   ar
@<TRIPOS>MOLECULE
14741545_Accepted
 20 22 0 0 0
SMALL
GASTEIGER

@<TRIPOS>ATOM
      1  C1        14.0070   32.2880   29.9850 C.ar    0  non0        0.0392
      2  C2        12.9020   32.2000   29.1160 C.ar    0  non0        0.0741
      3  N1        11.7940   31.4610   29.4660 N.ar    0  non0       -0.3496
      4  C3        11.7200   30.7850   30.6620 C.ar    0  non0        0.0934
      5  C4        12.8110   30.8650   31.5320 C.ar    0  non0        0.1176
      6  C5        13.9240   31.5990   31.1970 C.ar    0  non0        0.1035
      7  N2        14.8150   31.5090   32.1990 N.ar    0  non0       -0.2250
      8  C6        14.2340   30.7180   33.1370 C.ar    0  non0        0.1624
      9  N3        13.0000   30.3130   32.7420 N.ar    0  non0       -0.2236
     10  H3        11.0130   31.4120   28.8280 H       0  non0        0.1661
     11  C7        14.7580   30.2950   34.4170 C.ar    0  non0        0.0390
     12  C8        14.0100   29.4370   35.2410 C.ar    0  non0        0.0064
     13  C9        14.5130   29.0380   36.4850 C.ar    0  non0        0.0401
     14  C10       15.7630   29.4900   36.9160 C.ar    0  non0        0.1724
     15  C11       16.5100   30.3400   36.0920 C.ar    0  non0        0.1725
     16  C12       16.0190   30.7410   34.8500 C.ar    0  non0        0.0431
     17  O2        16.2580   29.1070   38.1300 O.3     0  non0       -0.4684
     18  C14       15.5390   29.7620   39.1630 C.3     0  non0        0.2526
     19  O1        17.7320   30.7770   36.5170 O.3     0  non0       -0.4684
     20  C13       17.6520   32.1510   36.8560 C.3     0  non0        0.2526
@<TRIPOS>BOND
     1    10     3    1
     2     2     3   ar
     3     2     1   ar
     4     3     4   ar
     5     1     6   ar
     6     4     5   ar
     7     6     5   ar
     8     6     7   ar
     9     5     9   ar
    10     7     8   ar
    11     9     8   ar
    12     8    11    1
    13    11    16   ar
    14    11    12   ar
    15    16    15   ar
    16    12    13   ar
    17    15    19    1
    18    15    14   ar
    19    13    14   ar
    20    19    20    1
    21    14    17    1
    22    17    18    1
@<TRIPOS>MOLECULE
14741545_Accepted
 20 22 0 0 0
SMALL
GASTEIGER

@<TRIPOS>ATOM
      1  C1        14.5310   32.0300   30.8640 C.ar    0  non0        0.0392
      2  C2        13.6950   32.1070   29.7320 C.ar    0  non0        0.0741
      3  N1        14.1240   31.6360   28.5110 N.ar    0  non0       -0.3496
      4  C3        15.3700   31.0780   28.3460 C.ar    0  non0        0.0934
      5  C4        16.2090   30.9960   29.4610 C.ar    0  non0        0.1176
      6  C5        15.7940   31.4620   30.6870 C.ar    0  non0        0.1035
      7  N2        16.7810   31.2640   31.5770 N.ar    0  non0       -0.2250
      8  C6        17.7900   30.6790   30.8830 C.ar    0  non0        0.1624
      9  N3        17.4540   30.5060   29.5790 N.ar    0  non0       -0.2236
     10  H3        13.5080   31.7010   27.7140 H       0  non0        0.1661
     11  C7        19.0890   30.2520   31.3570 C.ar    0  non0        0.0390
     12  C8        19.4430   30.4230   32.7060 C.ar    0  non0        0.0064
     13  C9        20.7040   30.0210   33.1610 C.ar    0  non0        0.0401
     14  C10       21.6190   29.4440   32.2770 C.ar    0  non0        0.1724
     15  C11       21.2630   29.2680   30.9350 C.ar    0  non0        0.1725
     16  C12       20.0090   29.6640   30.4710 C.ar    0  non0        0.0431
     17  O2        22.8520   29.0520   32.7140 O.3     0  non0       -0.4684
     18  C14       23.6500   30.1960   32.9720 C.3     0  non0        0.2526
     19  O1        22.1610   28.7020   30.0760 O.3     0  non0       -0.4684
     20  C13       22.6640   29.6930   29.1950 C.3     0  non0        0.2526
@<TRIPOS>BOND
     1    10     3    1
     2     4     3   ar
     3     4     5   ar
     4     3     2   ar
     5    20    19    1
     6     5     9   ar
     7     5     6   ar
     8     9     8   ar
     9     2     1   ar
    10    19    15    1
    11    16    15   ar
    12    16    11   ar
    13     6     1   ar
    14     6     7   ar
    15     8    11    1
    16     8     7   ar
    17    15    14   ar
    18    11    12   ar
    19    14    17    1
    20    14    13   ar
    21    12    13   ar
    22    17    18    1
@<TRIPOS>MOLECULE
26646894_Intermediate
 32 35 0 0 0
SMALL
GASTEIGER

@<TRIPOS>ATOM
      1  N2        24.5700   23.7420   29.5120 N.4     0  non0        0.3940
      2  H11       24.1130   23.4140   30.3510 H       0  non0       -0.0786
      3  C9        23.5700   24.1550   28.5450 C.3     0  non0       -0.0493
      4  C8        22.2520   23.6300   28.9460 C.ar    0  non0       -0.0431
      5  C7        21.6550   22.5880   28.2310 C.ar    0  non0       -0.0050
      6  C6        20.4060   22.0920   28.6180 C.ar    0  non0        0.0145
      7  C5        19.7420   22.6350   29.7320 C.ar    0  non0        0.0538
      8  C25       20.3400   23.6880   30.4450 C.ar    0  non0        0.0145
      9  C24       21.5880   24.1750   30.0520 C.ar    0  non0       -0.0050
     10  N1        18.5110   22.1370   30.1250 N.am    0  non0       -0.2586
     11  C3        18.2220   20.9980   30.9780 C.2     0  non0        0.2294
     12  C2        16.7390   20.7320   30.7660 C.3     0  non0        0.0874
     13  O4        19.0520   20.4500   31.6700 O.2     0  non0       -0.2745
     14  C1        16.1830   22.1230   30.4940 C.3     0  non0        0.0315
     15  C4        17.2840   22.7760   29.6700 C.3     0  non0        0.0987
     16  C10       25.4250   24.8700   29.8350 C.3     0  non0       -0.0462
     17  C11       24.9310   25.5280   31.0990 C.3     0  non0        0.0948
     18  C12       24.6820   24.5180   32.1120 C.3     0  non0        0.0299
     19  C13       26.0240   24.3940   32.7870 C.3     0  non0        0.0345
     20  C14       26.5220   25.8300   32.7790 C.3     0  non0        0.1420
     21  O1        25.9550   26.4530   31.6080 O.3     0  non0       -0.3584
     22  C15       25.3730   22.6710   28.9520 C.3     0  non0       -0.0461
     23  C16       25.9170   21.8330   30.0530 C.ar    0  non0       -0.0061
     24  C17       27.2920   21.8530   30.3430 C.ar    0  non0        0.0335
     25  C18       27.8070   21.0580   31.3730 C.ar    0  non0        0.1385
     26  C19       26.9570   20.2400   32.1210 C.ar    0  non0        0.0400
     27  C20       25.5890   20.2240   31.8350 C.ar    0  non0        0.0396
     28  C21       25.0650   21.0150   30.8130 C.ar    0  non0        0.1329
     29  O3        29.1460   21.0810   31.6440 O.3     0  non0       -0.4714
     30  C23       29.5290   22.3900   32.0280 C.3     0  non0        0.2525
     31  O2        23.7250   21.0050   30.5370 O.3     0  non0       -0.4718
     32  C22       22.9950   21.1510   31.7440 C.3     0  non0        0.2524
@<TRIPOS>BOND
     1     5     6   ar
     2     5     4   ar
     3     3     4    1
     4     3     1    1
     5     6     7   ar
     6     4     9   ar
     7    22     1    1
     8    22    23    1
     9     1    16    1
    10     1     2    1
    11    15    10    1
    12    15    14    1
    13     7    10    1
    14     7     8   ar
    15    16    17    1
    16     9     8   ar
    17    23    24   ar
    18    23    28   ar
    19    10    11   am
    20    24    25   ar
    21    14    12    1
    22    31    28    1
    23    31    32    1
    24    12    11    1
    25    28    27   ar
    26    11    13    2
    27    17    21    1
    28    17    18    1
    29    25    29    1
    30    25    26   ar
    31    21    20    1
    32    29    30    1
    33    27    26   ar
    34    18    19    1
    35    20    19    1
@<TRIPOS>MOLECULE
26646894_Intermediate
 32 35 0 0 0
SMALL
GASTEIGER

@<TRIPOS>ATOM
      1  N2        23.5950   27.4640   41.0440 N.4     0  non0        0.3940
      2  H11       23.3060   26.7340   40.4090 H       0  non0       -0.0786
      3  C9        23.1140   28.7460   40.5600 C.3     0  non0       -0.0493
      4  C8        22.6930   28.6120   39.1530 C.ar    0  non0       -0.0431
      5  C7        23.4570   29.1760   38.1260 C.ar    0  non0       -0.0050
      6  C6        23.0540   29.0440   36.7940 C.ar    0  non0        0.0145
      7  C5        21.8800   28.3390   36.4750 C.ar    0  non0        0.0538
      8  C25       21.1090   27.7810   37.5090 C.ar    0  non0        0.0145
      9  C24       21.5200   27.9170   38.8350 C.ar    0  non0       -0.0050
     10  N1        21.4860   28.1970   35.1550 N.am    0  non0       -0.2586
     11  C3        21.9050   27.2010   34.1840 C.2     0  non0        0.2294
     12  C2        21.4240   27.7470   32.8490 C.3     0  non0        0.0874
     13  O4        22.5030   26.1880   34.4770 O.2     0  non0       -0.2745
     14  C1        20.1600   28.5060   33.2300 C.3     0  non0        0.0315
     15  C4        20.5260   29.1250   34.5730 C.3     0  non0        0.0987
     16  C10       23.0410   27.2080   42.3610 C.3     0  non0       -0.0462
     17  C11       21.8140   26.3410   42.2310 C.3     0  non0        0.0948
     18  C12       22.0970   25.2210   41.3500 C.3     0  non0        0.0299
     19  C13       22.6370   24.1860   42.3030 C.3     0  non0        0.0345
     20  C14       21.7840   24.4120   43.5410 C.3     0  non0        0.1420
     21  O1        21.4380   25.8120   43.5500 O.3     0  non0       -0.3584
     22  C15       25.0430   27.4880   41.1240 C.3     0  non0       -0.0461
     23  C16       25.5680   26.1050   40.9820 C.ar    0  non0       -0.0061
     24  C17       26.1490   25.4520   42.0840 C.ar    0  non0        0.0335
     25  C18       26.6530   24.1540   41.9480 C.ar    0  non0        0.1385
     26  C19       26.5800   23.4960   40.7180 C.ar    0  non0        0.0400
     27  C20       25.9990   24.1440   39.6250 C.ar    0  non0        0.0396
     28  C21       25.4910   25.4370   39.7480 C.ar    0  non0        0.1329
     29  O3        27.2190   23.5300   43.0240 O.3     0  non0       -0.4714
     30  C23       26.2520   23.3830   44.0500 C.3     0  non0        0.2525
     31  O2        24.9160   26.0680   38.6800 O.3     0  non0       -0.4718
     32  C22       23.9740   25.2000   38.0720 C.3     0  non0        0.2524
@<TRIPOS>BOND
     1    12    14    1
     2    12    11    1
     3    14    15    1
     4    11    13    2
     5    11    10   am
     6    15    10    1
     7    10     7    1
     8     7     6   ar
     9     7     8   ar
    10     6     5   ar
    11     8     9   ar
    12    32    31    1
    13     5     4   ar
    14    31    28    1
    15     9     4   ar
    16     4     3    1
    17    27    28   ar
    18    27    26   ar
    19    28    23   ar
    20     2     1    1
    21     3     1    1
    22    26    25   ar
    23    23    22    1
    24    23    24   ar
    25     1    22    1
    26     1    16    1
    27    18    17    1
    28    18    19    1
    29    25    24   ar
    30    25    29    1
    31    17    16    1
    32    17    21    1
    33    19    20    1
    34    29    30    1
    35    20    21    1
