MODEL 1
REMARK VINA RESULT:      -0.0      0.000      0.000
REMARK NAME 26651606_Intermediate
REMARK  7 active torsions:
REMARK  status: ('A' for Active; 'I' for Inactive)
REMARK    1  A    between atoms: C2_2  and  O1_3 
REMARK    2  A    between atoms: O1_3  and  C3_4 
REMARK    3  A    between atoms: C6_7  and  N1_10 
REMARK       I    between atoms: N1_10  and  C9_11 
REMARK    4  A    between atoms: C9_11  and  C10_12 
REMARK    5  A    between atoms: C10_12  and  N2_13 
REMARK    6  A    between atoms: C12_15  and  N4_26 
REMARK    7  A    between atoms: C14_17  and  C15_18 
ROOT
ATOM      1  N2  non dame1      23.180  28.813  34.568  0.00  0.00    -0.223 N 
ATOM      2  C11 non dame1      24.434  28.462  34.015  0.00  0.00     0.290 A 
ATOM      3  C12 non dame1      24.449  28.153  32.548  0.00  0.00     0.098 A 
ATOM      4  C13 non dame1      23.318  28.208  31.846  0.00  0.00     0.069 A 
ATOM      5  C14 non dame1      22.094  28.580  32.551  0.00  0.00     0.092 A 
ATOM      6  N3  non dame1      22.019  28.868  33.803  0.00  0.00    -0.168 NA
ATOM      7  O3  non dame1      25.405  28.431  34.739  0.00  0.00    -0.264 OA
ENDROOT
BRANCH   1   8
ATOM      8  C10 non dame1      23.102  29.123  35.968  0.00  0.00     0.257 C 
BRANCH   8   9
ATOM      9  C9  non dame1      21.858  28.529  36.540  0.00  0.00     0.242 C 
ATOM     10  N1  non dame1      21.478  27.263  36.184  0.00  0.00    -0.326 N 
ATOM     11  H10 non dame1      22.046  26.740  35.532  0.00  0.00     0.169 HD
ATOM     12  O4  non dame1      21.181  29.172  37.328  0.00  0.00    -0.271 OA
BRANCH  10  13
ATOM     13  C6  non dame1      20.324  26.711  36.714  0.00  0.00     0.034 A 
ATOM     14  C5  non dame1      20.366  25.993  37.912  0.00  0.00     0.032 A 
ATOM     15  C4  non dame1      19.197  25.440  38.443  0.00  0.00     0.039 A 
ATOM     16  C3  non dame1      17.984  25.612  37.771  0.00  0.00     0.068 A 
ATOM     17  C8  non dame1      17.931  26.320  36.570  0.00  0.00     0.039 A 
ATOM     18  C7  non dame1      19.103  26.870  36.048  0.00  0.00     0.032 A 
BRANCH  16  19
ATOM     19  O1  non dame1      16.844  25.079  38.301  0.00  0.00    -0.352 OA
BRANCH  19  20
ATOM     20  C2  non dame1      16.172  24.319  37.312  0.00  0.00     0.171 C 
ATOM     21  C1  non dame1      16.637  22.881  37.379  0.00  0.00     0.034 C 
ENDBRANCH  19  20
ENDBRANCH  16  19
ENDBRANCH  10  13
ENDBRANCH   8   9
ENDBRANCH   1   8
BRANCH   3  22
ATOM     22  N4  non dame1      25.723  27.805  31.973  0.00  0.00    -0.395 N 
ATOM     23  H21 non dame1      25.761  27.237  31.139  0.00  0.00     0.156 HD
ATOM     24  H22 non dame1      26.577  28.128  32.404  0.00  0.00     0.156 HD
ENDBRANCH   3  22
BRANCH   5  25
ATOM     25  C15 non dame1      20.925  28.619  31.775  0.00  0.00     0.026 A 
ATOM     26  C16 non dame1      20.574  29.671  31.012  0.00  0.00     0.048 A 
ATOM     27  C17 non dame1      19.385  29.274  30.427  0.00  0.00     0.050 A 
ATOM     28  C18 non dame1      18.497  29.938  29.488  0.00  0.00     0.076 C 
ATOM     29  O2  non dame1      19.065  28.017  30.871  0.00  0.00    -0.319 OA
ATOM     30  C19 non dame1      20.051  27.621  31.718  0.00  0.00     0.062 A 
ATOM     31  C20 non dame1      20.212  26.383  32.463  0.00  0.00     0.077 C 
ENDBRANCH   5  25
TORSDOF 7
ENDMDL
MODEL 2
REMARK VINA RESULT:      -0.0      3.497      8.201
REMARK NAME 26651606_Intermediate
REMARK  7 active torsions:
REMARK  status: ('A' for Active; 'I' for Inactive)
REMARK    1  A    between atoms: C2_2  and  O1_3 
REMARK    2  A    between atoms: O1_3  and  C3_4 
REMARK    3  A    between atoms: C6_7  and  N1_10 
REMARK       I    between atoms: N1_10  and  C9_11 
REMARK    4  A    between atoms: C9_11  and  C10_12 
REMARK    5  A    between atoms: C10_12  and  N2_13 
REMARK    6  A    between atoms: C12_15  and  N4_26 
REMARK    7  A    between atoms: C14_17  and  C15_18 
ROOT
ATOM      1  N2  non dame1      19.722  24.363  37.769  0.00  0.00    -0.223 N 
ATOM      2  C11 non dame1      19.115  23.086  37.744  0.00  0.00     0.290 A 
ATOM      3  C12 non dame1      20.028  21.913  37.937  0.00  0.00     0.098 A 
ATOM      4  C13 non dame1      21.334  22.110  38.108  0.00  0.00     0.069 A 
ATOM      5  C14 non dame1      21.824  23.486  38.106  0.00  0.00     0.092 A 
ATOM      6  N3  non dame1      21.089  24.533  37.958  0.00  0.00    -0.168 NA
ATOM      7  O3  non dame1      17.917  23.009  37.572  0.00  0.00    -0.264 OA
ENDROOT
BRANCH   1   8
ATOM      8  C10 non dame1      18.897  25.526  37.593  0.00  0.00     0.257 C 
BRANCH   8   9
ATOM      9  C9  non dame1      19.609  26.514  36.731  0.00  0.00     0.242 C 
ATOM     10  N1  non dame1      20.259  26.093  35.602  0.00  0.00    -0.326 N 
ATOM     11  H10 non dame1      20.251  25.112  35.362  0.00  0.00     0.169 HD
ATOM     12  O4  non dame1      19.610  27.698  37.031  0.00  0.00    -0.271 OA
BRANCH  10  13
ATOM     13  C6  non dame1      20.920  27.009  34.801  0.00  0.00     0.034 A 
ATOM     14  C5  non dame1      20.248  27.658  33.762  0.00  0.00     0.032 A 
ATOM     15  C4  non dame1      20.921  28.584  32.957  0.00  0.00     0.039 A 
ATOM     16  C3  non dame1      22.269  28.860  33.201  0.00  0.00     0.068 A 
ATOM     17  C8  non dame1      22.952  28.211  34.230  0.00  0.00     0.039 A 
ATOM     18  C7  non dame1      22.272  27.290  35.029  0.00  0.00     0.032 A 
BRANCH  16  19
ATOM     19  O1  non dame1      22.917  29.773  32.419  0.00  0.00    -0.352 OA
BRANCH  19  20
ATOM     20  C2  non dame1      24.122  29.209  31.932  0.00  0.00     0.171 C 
ATOM     21  C1  non dame1      23.872  28.568  30.585  0.00  0.00     0.034 C 
ENDBRANCH  19  20
ENDBRANCH  16  19
ENDBRANCH  10  13
ENDBRANCH   8   9
ENDBRANCH   1   8
BRANCH   3  22
ATOM     22  N4  non dame1      19.418  20.609  37.924  0.00  0.00    -0.395 N 
ATOM     23  H21 non dame1      19.142  20.190  37.047  0.00  0.00     0.156 HD
ATOM     24  H22 non dame1      19.267  20.113  38.790  0.00  0.00     0.156 HD
ENDBRANCH   3  22
BRANCH   5  25
ATOM     25  C15 non dame1      23.207  23.647  38.282  0.00  0.00     0.026 A 
ATOM     26  C16 non dame1      23.808  23.644  39.486  0.00  0.00     0.048 A 
ATOM     27  C17 non dame1      25.148  23.817  39.188  0.00  0.00     0.050 A 
ATOM     28  C18 non dame1      26.328  23.889  40.034  0.00  0.00     0.076 C 
ATOM     29  O2  non dame1      25.294  23.933  37.830  0.00  0.00    -0.319 OA
ATOM     30  C19 non dame1      24.057  23.821  37.277  0.00  0.00     0.062 A 
ATOM     31  C20 non dame1      23.640  23.867  35.884  0.00  0.00     0.077 C 
ENDBRANCH   5  25
TORSDOF 7
ENDMDL
MODEL 3
REMARK VINA RESULT:      -0.0      3.390      4.280
REMARK NAME 26651606_Intermediate
REMARK  7 active torsions:
REMARK  status: ('A' for Active; 'I' for Inactive)
REMARK    1  A    between atoms: C2_2  and  O1_3 
REMARK    2  A    between atoms: O1_3  and  C3_4 
REMARK    3  A    between atoms: C6_7  and  N1_10 
REMARK       I    between atoms: N1_10  and  C9_11 
REMARK    4  A    between atoms: C9_11  and  C10_12 
REMARK    5  A    between atoms: C10_12  and  N2_13 
REMARK    6  A    between atoms: C12_15  and  N4_26 
REMARK    7  A    between atoms: C14_17  and  C15_18 
ROOT
ATOM      1  N2  non dame1      19.356  28.468  33.294  0.00  0.00    -0.223 N 
ATOM      2  C11 non dame1      20.078  27.900  32.218  0.00  0.00     0.290 A 
ATOM      3  C12 non dame1      19.274  27.137  31.209  0.00  0.00     0.098 A 
ATOM      4  C13 non dame1      17.956  27.018  31.364  0.00  0.00     0.069 A 
ATOM      5  C14 non dame1      17.344  27.653  32.527  0.00  0.00     0.092 A 
ATOM      6  N3  non dame1      17.978  28.331  33.419  0.00  0.00    -0.168 NA
ATOM      7  O3  non dame1      21.279  28.056  32.171  0.00  0.00    -0.264 OA
ENDROOT
BRANCH   1   8
ATOM      8  C10 non dame1      20.071  29.214  34.292  0.00  0.00     0.257 C 
BRANCH   8   9
ATOM      9  C9  non dame1      19.524  28.891  35.641  0.00  0.00     0.242 C 
ATOM     10  N1  non dame1      19.237  27.594  35.970  0.00  0.00    -0.326 N 
ATOM     11  H10 non dame1      19.399  26.863  35.292  0.00  0.00     0.169 HD
ATOM     12  O4  non dame1      19.332  29.784  36.453  0.00  0.00    -0.271 OA
BRANCH  10  13
ATOM     13  C6  non dame1      18.728  27.293  37.223  0.00  0.00     0.034 A 
ATOM     14  C5  non dame1      19.586  27.009  38.288  0.00  0.00     0.032 A 
ATOM     15  C4  non dame1      19.066  26.707  39.551  0.00  0.00     0.039 A 
ATOM     16  C3  non dame1      17.682  26.696  39.743  0.00  0.00     0.068 A 
ATOM     17  C8  non dame1      16.815  26.970  38.685  0.00  0.00     0.039 A 
ATOM     18  C7  non dame1      17.344  27.271  37.429  0.00  0.00     0.032 A 
BRANCH  16  19
ATOM     19  O1  non dame1      17.182  26.412  40.982  0.00  0.00    -0.352 OA
BRANCH  19  20
ATOM     20  C2  non dame1      16.202  25.394  40.875  0.00  0.00     0.171 C 
ATOM     21  C1  non dame1      16.855  24.043  41.069  0.00  0.00     0.034 C 
ENDBRANCH  19  20
ENDBRANCH  16  19
ENDBRANCH  10  13
ENDBRANCH   8   9
ENDBRANCH   1   8
BRANCH   3  22
ATOM     22  N4  non dame1      19.998  26.563  30.105  0.00  0.00    -0.395 N 
ATOM     23  H21 non dame1      19.518  26.353  29.242  0.00  0.00     0.156 HD
ATOM     24  H22 non dame1      20.985  26.370  30.193  0.00  0.00     0.156 HD
ENDBRANCH   3  22
BRANCH   5  25
ATOM     25  C15 non dame1      15.955  27.496  32.654  0.00  0.00     0.026 A 
ATOM     26  C16 non dame1      15.059  28.265  32.009  0.00  0.00     0.048 A 
ATOM     27  C17 non dame1      13.836  27.758  32.412  0.00  0.00     0.050 A 
ATOM     28  C18 non dame1      12.472  28.129  32.071  0.00  0.00     0.076 C 
ATOM     29  O2  non dame1      14.046  26.725  33.287  0.00  0.00    -0.319 OA
ATOM     30  C19 non dame1      15.390  26.574  33.424  0.00  0.00     0.062 A 
ATOM     31  C20 non dame1      16.156  25.632  34.224  0.00  0.00     0.077 C 
ENDBRANCH   5  25
TORSDOF 7
ENDMDL
MODEL 4
REMARK VINA RESULT:      -0.0      0.000      0.000
REMARK NAME 17452383_Intermediate
REMARK  2 active torsions:
REMARK  status: ('A' for Active; 'I' for Inactive)
REMARK       I    between atoms: N1_1  and  C1_2 
REMARK    1  A    between atoms: N1_1  and  C7_10 
REMARK    2  A    between atoms: C1_2  and  C2_3 
ROOT
ATOM      1  C7  non dame1      14.726  26.095  29.169  0.00  0.00     0.173 A 
ATOM      2  N3  non dame1      15.617  25.676  29.996  0.00  0.00    -0.223 NA
ATOM      3  C8  non dame1      16.039  24.421  29.596  0.00  0.00     0.076 A 
ATOM      4  C9  non dame1      16.985  23.664  30.225  0.00  0.00    -0.006 A 
ATOM      5  C10 non dame1      17.334  22.404  29.729  0.00  0.00     0.014 A 
ATOM      6  C11 non dame1      18.284  21.623  30.395  0.00  0.00     0.013 A 
ATOM      7  C12 non dame1      18.912  22.087  31.562  0.00  0.00    -0.026 A 
ATOM      8  C13 non dame1      19.864  21.311  32.245  0.00  0.00     0.012 A 
ATOM      9  C14 non dame1      20.480  21.794  33.401  0.00  0.00     0.001 A 
ATOM     10  C15 non dame1      20.156  23.057  33.887  0.00  0.00     0.001 A 
ATOM     11  C16 non dame1      19.213  23.840  33.221  0.00  0.00     0.012 A 
ATOM     12  C17 non dame1      18.580  23.366  32.059  0.00  0.00    -0.025 A 
ATOM     13  C18 non dame1      17.623  24.137  31.381  0.00  0.00     0.026 A 
ATOM     14  C19 non dame1      15.432  23.926  28.463  0.00  0.00     0.085 A 
ATOM     15  S1  non dame1      14.297  25.069  27.882  0.00  0.00    -0.061 SA
ENDROOT
BRANCH   1  16
ATOM     16  N1  non dame1      14.104  27.398  29.322  0.00  0.00    -0.301 N 
ATOM     17  C1  non dame1      14.651  28.493  28.712  0.00  0.00     0.257 C 
ATOM     18  O1  non dame1      15.663  28.376  28.038  0.00  0.00    -0.267 OA
ATOM     19  H1  non dame1      13.268  27.546  29.868  0.00  0.00     0.171 HD
BRANCH  17  20
ATOM     20  C2  non dame1      14.032  29.793  28.866  0.00  0.00     0.035 A 
ATOM     21  C3  non dame1      14.554  30.927  28.251  0.00  0.00     0.036 A 
ATOM     22  C4  non dame1      13.919  32.138  28.466  0.00  0.00     0.117 A 
ATOM     23  N2  non dame1      12.817  32.283  29.228  0.00  0.00    -0.273 NA
ATOM     24  C5  non dame1      12.301  31.188  29.809  0.00  0.00     0.117 A 
ATOM     25  C6  non dame1      12.878  29.929  29.646  0.00  0.00     0.036 A 
ENDBRANCH  17  20
ENDBRANCH   1  16
TORSDOF 2
ENDMDL
MODEL 5
REMARK VINA RESULT:      -0.0      4.231      5.332
REMARK NAME 17452383_Intermediate
REMARK  2 active torsions:
REMARK  status: ('A' for Active; 'I' for Inactive)
REMARK       I    between atoms: N1_1  and  C1_2 
REMARK    1  A    between atoms: N1_1  and  C7_10 
REMARK    2  A    between atoms: C1_2  and  C2_3 
ROOT
ATOM      1  C7  non dame1      17.385  30.233  32.920  0.00  0.00     0.173 A 
ATOM      2  N3  non dame1      17.503  28.988  33.221  0.00  0.00    -0.223 NA
ATOM      3  C8  non dame1      18.421  28.865  34.247  0.00  0.00     0.076 A 
ATOM      4  C9  non dame1      18.799  27.694  34.837  0.00  0.00    -0.006 A 
ATOM      5  C10 non dame1      19.741  27.689  35.871  0.00  0.00     0.014 A 
ATOM      6  C11 non dame1      20.144  26.481  36.451  0.00  0.00     0.013 A 
ATOM      7  C12 non dame1      19.609  25.257  36.019  0.00  0.00    -0.026 A 
ATOM      8  C13 non dame1      20.009  24.037  36.588  0.00  0.00     0.012 A 
ATOM      9  C14 non dame1      19.460  22.831  36.147  0.00  0.00     0.001 A 
ATOM     10  C15 non dame1      18.504  22.829  35.136  0.00  0.00     0.001 A 
ATOM     11  C16 non dame1      18.097  24.033  34.560  0.00  0.00     0.012 A 
ATOM     12  C17 non dame1      18.644  25.254  34.989  0.00  0.00    -0.025 A 
ATOM     13  C18 non dame1      18.251  26.473  34.416  0.00  0.00     0.026 A 
ATOM     14  C19 non dame1      18.980  30.045  34.686  0.00  0.00     0.085 A 
ATOM     15  S1  non dame1      18.334  31.349  33.783  0.00  0.00    -0.061 SA
ENDROOT
BRANCH   1  16
ATOM     16  N1  non dame1      16.474  30.677  31.880  0.00  0.00    -0.301 N 
ATOM     17  C1  non dame1      15.188  31.021  32.198  0.00  0.00     0.257 C 
ATOM     18  O1  non dame1      14.806  30.955  33.356  0.00  0.00    -0.267 OA
ATOM     19  H1  non dame1      16.742  30.749  30.909  0.00  0.00     0.171 HD
BRANCH  17  20
ATOM     20  C2  non dame1      14.279  31.463  31.161  0.00  0.00     0.035 A 
ATOM     21  C3  non dame1      12.972  31.845  31.450  0.00  0.00     0.036 A 
ATOM     22  C4  non dame1      12.157  32.232  30.402  0.00  0.00     0.117 A 
ATOM     23  N2  non dame1      12.556  32.271  29.114  0.00  0.00    -0.273 NA
ATOM     24  C5  non dame1      13.821  31.918  28.834  0.00  0.00     0.117 A 
ATOM     25  C6  non dame1      14.709  31.515  29.830  0.00  0.00     0.036 A 
ENDBRANCH  17  20
ENDBRANCH   1  16
TORSDOF 2
ENDMDL
MODEL 6
REMARK VINA RESULT:      -0.0      4.475      9.430
REMARK NAME 17452383_Intermediate
REMARK  2 active torsions:
REMARK  status: ('A' for Active; 'I' for Inactive)
REMARK       I    between atoms: N1_1  and  C1_2 
REMARK    1  A    between atoms: N1_1  and  C7_10 
REMARK    2  A    between atoms: C1_2  and  C2_3 
ROOT
ATOM      1  C7  non dame1      13.406  26.605  34.149  0.00  0.00     0.173 A 
ATOM      2  N3  non dame1      13.602  27.562  33.313  0.00  0.00    -0.223 NA
ATOM      3  C8  non dame1      12.491  27.673  32.497  0.00  0.00     0.076 A 
ATOM      4  C9  non dame1      12.331  28.585  31.494  0.00  0.00    -0.006 A 
ATOM      5  C10 non dame1      11.159  28.605  30.730  0.00  0.00     0.014 A 
ATOM      6  C11 non dame1      11.015  29.525  29.685  0.00  0.00     0.013 A 
ATOM      7  C12 non dame1      12.031  30.448  29.389  0.00  0.00    -0.026 A 
ATOM      8  C13 non dame1      11.902  31.373  28.340  0.00  0.00     0.012 A 
ATOM      9  C14 non dame1      12.923  32.286  28.066  0.00  0.00     0.001 A 
ATOM     10  C15 non dame1      14.081  32.288  28.837  0.00  0.00     0.001 A 
ATOM     11  C16 non dame1      14.224  31.376  29.883  0.00  0.00     0.012 A 
ATOM     12  C17 non dame1      13.209  30.447  30.168  0.00  0.00    -0.025 A 
ATOM     13  C18 non dame1      13.339  29.517  31.211  0.00  0.00     0.026 A 
ATOM     14  C19 non dame1      11.480  26.772  32.748  0.00  0.00     0.085 A 
ATOM     15  S1  non dame1      11.937  25.753  34.047  0.00  0.00    -0.061 SA
ENDROOT
BRANCH   1  16
ATOM     16  N1  non dame1      14.399  26.258  35.150  0.00  0.00    -0.301 N 
ATOM     17  C1  non dame1      15.354  25.319  34.870  0.00  0.00     0.257 C 
ATOM     18  O1  non dame1      15.370  24.771  33.778  0.00  0.00    -0.267 OA
ATOM     19  H1  non dame1      14.428  26.683  36.065  0.00  0.00     0.171 HD
BRANCH  17  20
ATOM     20  C2  non dame1      16.344  24.973  35.868  0.00  0.00     0.035 A 
ATOM     21  C3  non dame1      16.373  25.594  37.113  0.00  0.00     0.036 A 
ATOM     22  C4  non dame1      17.365  25.226  38.004  0.00  0.00     0.117 A 
ATOM     23  N2  non dame1      18.302  24.293  37.742  0.00  0.00    -0.273 NA
ATOM     24  C5  non dame1      18.267  23.680  36.547  0.00  0.00     0.117 A 
ATOM     25  C6  non dame1      17.302  23.991  35.590  0.00  0.00     0.036 A 
ENDBRANCH  17  20
ENDBRANCH   1  16
TORSDOF 2
ENDMDL
MODEL 7
REMARK VINA RESULT:      -0.0      0.000      0.000
REMARK NAME 22411998_Intermediate
REMARK  7 active torsions:
REMARK  status: ('A' for Active; 'I' for Inactive)
REMARK    1  A    between atoms: O1_2  and  C2_3 
REMARK    2  A    between atoms: C5_6  and  N1_9 
REMARK    3  A    between atoms: N1_9  and  C8_10 
REMARK    4  A    between atoms: N1_9  and  S1_21 
REMARK    5  A    between atoms: C8_10  and  C9_11 
REMARK       I    between atoms: C9_11  and  N2_12 
REMARK    6  A    between atoms: N2_12  and  C10_13 
REMARK    7  A    between atoms: C10_13  and  C11_14 
ROOT
ATOM      1  N1  non dame1      25.708  24.479  34.330  0.00  0.00    -0.267 N 
ENDROOT
BRANCH   1   2
ATOM      2  C5  non dame1      24.860  23.963  33.285  0.00  0.00     0.045 A 
ATOM      3  C4  non dame1      24.706  24.664  32.087  0.00  0.00     0.033 A 
ATOM      4  C3  non dame1      23.883  24.159  31.075  0.00  0.00     0.039 A 
ATOM      5  C2  non dame1      23.218  22.945  31.268  0.00  0.00     0.068 A 
ATOM      6  C7  non dame1      23.358  22.241  32.465  0.00  0.00     0.039 A 
ATOM      7  C6  non dame1      24.182  22.753  33.468  0.00  0.00     0.033 A 
BRANCH   5   8
ATOM      8  O1  non dame1      22.425  22.452  30.272  0.00  0.00    -0.356 OA
ATOM      9  C1  non dame1      22.691  23.151  29.067  0.00  0.00     0.210 C 
ENDBRANCH   5   8
ENDBRANCH   1   2
BRANCH   1  10
ATOM     10  C8  non dame1      25.119  25.063  35.520  0.00  0.00     0.244 C 
BRANCH  10  11
ATOM     11  C9  non dame1      23.998  25.968  35.129  0.00  0.00     0.236 C 
ATOM     12  N2  non dame1      22.703  25.538  35.228  0.00  0.00    -0.355 N 
ATOM     13  H10 non dame1      22.562  24.599  35.575  0.00  0.00     0.162 HD
ATOM     14  O2  non dame1      24.239  27.093  34.718  0.00  0.00    -0.272 OA
BRANCH  12  15
ATOM     15  C10 non dame1      21.607  26.422  34.843  0.00  0.00     0.161 C 
BRANCH  15  16
ATOM     16  C11 non dame1      21.158  26.084  33.468  0.00  0.00    -0.041 A 
ATOM     17  C12 non dame1      20.454  24.890  33.224  0.00  0.00     0.009 A 
ATOM     18  C13 non dame1      20.041  24.568  31.928  0.00  0.00     0.001 A 
ATOM     19  C14 non dame1      20.322  25.429  30.864  0.00  0.00     0.000 A 
ATOM     20  C15 non dame1      21.017  26.621  31.109  0.00  0.00     0.001 A 
ATOM     21  C16 non dame1      21.432  26.953  32.400  0.00  0.00     0.009 A 
ENDBRANCH  15  16
ENDBRANCH  12  15
ENDBRANCH  10  11
ENDBRANCH   1  10
BRANCH   1  22
ATOM     22  S1  non dame1      27.351  24.401  34.174  0.00  0.00     0.229 S 
ATOM     23  C17 non dame1      27.958  25.943  33.547  0.00  0.00     0.186 C 
ATOM     24  O3  non dame1      27.752  23.180  33.123  0.00  0.00    -0.206 OA
ATOM     25  O4  non dame1      28.034  24.099  35.658  0.00  0.00    -0.206 OA
ENDBRANCH   1  22
TORSDOF 7
ENDMDL
MODEL 8
REMARK VINA RESULT:      -0.0      7.198      9.245
REMARK NAME 22411998_Intermediate
REMARK  7 active torsions:
REMARK  status: ('A' for Active; 'I' for Inactive)
REMARK    1  A    between atoms: O1_2  and  C2_3 
REMARK    2  A    between atoms: C5_6  and  N1_9 
REMARK    3  A    between atoms: N1_9  and  C8_10 
REMARK    4  A    between atoms: N1_9  and  S1_21 
REMARK    5  A    between atoms: C8_10  and  C9_11 
REMARK       I    between atoms: C9_11  and  N2_12 
REMARK    6  A    between atoms: N2_12  and  C10_13 
REMARK    7  A    between atoms: C10_13  and  C11_14 
ROOT
ATOM      1  N1  non dame1      15.184  23.537  37.627  0.00  0.00    -0.267 N 
ENDROOT
BRANCH   1   2
ATOM      2  C5  non dame1      16.139  23.736  36.566  0.00  0.00     0.045 A 
ATOM      3  C4  non dame1      16.597  22.653  35.812  0.00  0.00     0.033 A 
ATOM      4  C3  non dame1      17.524  22.852  34.783  0.00  0.00     0.039 A 
ATOM      5  C2  non dame1      17.985  24.142  34.510  0.00  0.00     0.068 A 
ATOM      6  C7  non dame1      17.540  25.231  35.263  0.00  0.00     0.039 A 
ATOM      7  C6  non dame1      16.616  25.022  36.287  0.00  0.00     0.033 A 
BRANCH   5   8
ATOM      8  O1  non dame1      18.880  24.331  33.496  0.00  0.00    -0.356 OA
ATOM      9  C1  non dame1      19.453  25.624  33.605  0.00  0.00     0.210 C 
ENDBRANCH   5   8
ENDBRANCH   1   2
BRANCH   1  10
ATOM     10  C8  non dame1      13.799  23.245  37.311  0.00  0.00     0.244 C 
BRANCH  10  11
ATOM     11  C9  non dame1      13.318  24.188  36.258  0.00  0.00     0.236 C 
ATOM     12  N2  non dame1      13.239  23.779  34.956  0.00  0.00    -0.355 N 
ATOM     13  H10 non dame1      13.516  22.826  34.761  0.00  0.00     0.162 HD
ATOM     14  O2  non dame1      12.998  25.328  36.562  0.00  0.00    -0.272 OA
BRANCH  12  15
ATOM     15  C10 non dame1      12.771  24.702  33.926  0.00  0.00     0.161 C 
BRANCH  15  16
ATOM     16  C11 non dame1      13.939  25.321  33.249  0.00  0.00    -0.041 A 
ATOM     17  C12 non dame1      14.739  24.562  32.376  0.00  0.00     0.009 A 
ATOM     18  C13 non dame1      15.845  25.144  31.747  0.00  0.00     0.001 A 
ATOM     19  C14 non dame1      16.163  26.485  31.980  0.00  0.00     0.000 A 
ATOM     20  C15 non dame1      15.361  27.242  32.844  0.00  0.00     0.001 A 
ATOM     21  C16 non dame1      14.254  26.671  33.475  0.00  0.00     0.009 A 
ENDBRANCH  15  16
ENDBRANCH  12  15
ENDBRANCH  10  11
ENDBRANCH   1  10
BRANCH   1  22
ATOM     22  S1  non dame1      15.668  23.639  39.204  0.00  0.00     0.229 S 
ATOM     23  C17 non dame1      15.313  25.259  39.827  0.00  0.00     0.186 C 
ATOM     24  O3  non dame1      17.301  23.354  39.303  0.00  0.00    -0.206 OA
ATOM     25  O4  non dame1      14.854  22.507  40.106  0.00  0.00    -0.206 OA
ENDBRANCH   1  22
TORSDOF 7
ENDMDL
MODEL 9
REMARK VINA RESULT:      -0.0      5.080      7.755
REMARK NAME 22411998_Intermediate
REMARK  7 active torsions:
REMARK  status: ('A' for Active; 'I' for Inactive)
REMARK    1  A    between atoms: O1_2  and  C2_3 
REMARK    2  A    between atoms: C5_6  and  N1_9 
REMARK    3  A    between atoms: N1_9  and  C8_10 
REMARK    4  A    between atoms: N1_9  and  S1_21 
REMARK    5  A    between atoms: C8_10  and  C9_11 
REMARK       I    between atoms: C9_11  and  N2_12 
REMARK    6  A    between atoms: N2_12  and  C10_13 
REMARK    7  A    between atoms: C10_13  and  C11_14 
ROOT
ATOM      1  N1  non dame1      26.499  28.687  36.505  0.00  0.00    -0.267 N 
ENDROOT
BRANCH   1   2
ATOM      2  C5  non dame1      26.021  28.813  37.858  0.00  0.00     0.045 A 
ATOM      3  C4  non dame1      25.893  27.686  38.673  0.00  0.00     0.033 A 
ATOM      4  C3  non dame1      25.429  27.815  39.987  0.00  0.00     0.039 A 
ATOM      5  C2  non dame1      25.099  29.079  40.482  0.00  0.00     0.068 A 
ATOM      6  C7  non dame1      25.216  30.211  39.673  0.00  0.00     0.039 A 
ATOM      7  C6  non dame1      25.679  30.072  38.365  0.00  0.00     0.033 A 
BRANCH   5   8
ATOM      8  O1  non dame1      24.659  29.199  41.769  0.00  0.00    -0.356 OA
ATOM      9  C1  non dame1      24.916  27.993  42.470  0.00  0.00     0.210 C 
ENDBRANCH   5   8
ENDBRANCH   1   2
BRANCH   1  10
ATOM     10  C8  non dame1      25.575  28.816  35.394  0.00  0.00     0.244 C 
BRANCH  10  11
ATOM     11  C9  non dame1      24.332  28.041  35.686  0.00  0.00     0.236 C 
ATOM     12  N2  non dame1      23.202  28.689  36.103  0.00  0.00    -0.355 N 
ATOM     13  H10 non dame1      23.263  29.693  36.196  0.00  0.00     0.162 HD
ATOM     14  O2  non dame1      24.327  26.826  35.553  0.00  0.00    -0.272 OA
BRANCH  12  15
ATOM     15  C10 non dame1      21.989  27.931  36.391  0.00  0.00     0.161 C 
BRANCH  15  16
ATOM     16  C11 non dame1      21.895  27.682  37.853  0.00  0.00    -0.041 A 
ATOM     17  C12 non dame1      21.597  28.736  38.735  0.00  0.00     0.009 A 
ATOM     18  C13 non dame1      21.519  28.502  40.112  0.00  0.00     0.001 A 
ATOM     19  C14 non dame1      21.737  27.219  40.622  0.00  0.00     0.000 A 
ATOM     20  C15 non dame1      22.026  26.169  39.742  0.00  0.00     0.001 A 
ATOM     21  C16 non dame1      22.104  26.391  38.366  0.00  0.00     0.009 A 
ENDBRANCH  15  16
ENDBRANCH  12  15
ENDBRANCH  10  11
ENDBRANCH   1  10
BRANCH   1  22
ATOM     22  S1  non dame1      28.100  28.397  36.218  0.00  0.00     0.229 S 
ATOM     23  C17 non dame1      28.358  26.655  36.017  0.00  0.00     0.186 C 
ATOM     24  O3  non dame1      29.001  28.945  37.500  0.00  0.00    -0.206 OA
ATOM     25  O4  non dame1      28.566  29.190  34.835  0.00  0.00    -0.206 OA
ENDBRANCH   1  22
TORSDOF 7
ENDMDL
MODEL 10
REMARK VINA RESULT:      -0.0      0.000      0.000
REMARK NAME 22411598_Intermediate
REMARK  3 active torsions:
REMARK  status: ('A' for Active; 'I' for Inactive)
REMARK    1  A    between atoms: N2_12  and  C11_13 
REMARK    2  A    between atoms: C11_13  and  C12_14 
REMARK       I    between atoms: C12_14  and  N3_15 
REMARK    3  A    between atoms: N3_15  and  C13_16 
ROOT
ATOM      1  C11 non dame1      21.674  25.403  34.362  0.00  0.00     0.254 C 
ENDROOT
BRANCH   1   2
ATOM      2  N2  non dame1      22.189  24.153  33.864  0.00  0.00    -0.259 N 
ATOM      3  N1  non dame1      23.011  23.310  34.561  0.00  0.00    -0.183 NA
ATOM      4  C10 non dame1      22.966  22.162  33.881  0.00  0.00     0.159 C 
ATOM      5  C9  non dame1      22.279  22.300  32.674  0.00  0.00     0.088 C 
ATOM      6  C8  non dame1      21.924  23.633  32.604  0.00  0.00     0.084 C 
ATOM      7  C22 non dame1      21.983  21.356  31.625  0.00  0.00     0.302 C 
ATOM      8  C6  non dame1      21.396  24.206  31.377  0.00  0.00     0.028 A 
ATOM      9  C5  non dame1      21.054  23.288  30.367  0.00  0.00     0.092 A 
ATOM     10  C7  non dame1      21.308  25.567  31.082  0.00  0.00     0.023 A 
ATOM     11  C4  non dame1      20.541  23.696  29.137  0.00  0.00     0.039 A 
ATOM     12  O4  non dame1      21.282  21.888  30.522  0.00  0.00    -0.274 OA
ATOM     13  C3  non dame1      20.399  25.058  28.887  0.00  0.00     0.009 A 
ATOM     14  C2  non dame1      20.795  25.989  29.850  0.00  0.00    -0.061 A 
ATOM     15  C1  non dame1      20.671  27.431  29.557  0.00  0.00     0.048 C 
ATOM     16  O3  non dame1      22.304  20.188  31.663  0.00  0.00    -0.259 OA
ENDBRANCH   1   2
BRANCH   1  17
ATOM     17  C12 non dame1      20.292  25.197  34.887  0.00  0.00     0.243 C 
ATOM     18  N3  non dame1      20.007  24.097  35.651  0.00  0.00    -0.304 N 
ATOM     19  H10 non dame1      20.763  23.452  35.832  0.00  0.00     0.171 HD
ATOM     20  O2  non dame1      19.416  26.009  34.636  0.00  0.00    -0.271 OA
BRANCH  18  21
ATOM     21  C13 non dame1      18.662  23.898  36.162  0.00  0.00     0.177 A 
ATOM     22  C14 non dame1      17.775  23.102  35.581  0.00  0.00     0.093 A 
ATOM     23  C15 non dame1      16.658  23.206  36.461  0.00  0.00     0.099 A 
ATOM     24  C16 non dame1      15.446  22.579  36.416  0.00  0.00    -0.002 A 
ATOM     25  N4  non dame1      16.912  24.063  37.459  0.00  0.00    -0.126 NA
ATOM     26  C17 non dame1      15.155  21.673  35.383  0.00  0.00     0.014 A 
ATOM     27  C21 non dame1      14.479  22.833  37.402  0.00  0.00     0.056 A 
ATOM     28  C18 non dame1      13.908  21.041  35.328  0.00  0.00     0.004 A 
ATOM     29  C19 non dame1      12.945  21.300  36.307  0.00  0.00     0.042 A 
ATOM     30  C20 non dame1      13.239  22.196  37.341  0.00  0.00     0.117 A 
ATOM     31  F1  non dame1      12.290  22.447  38.298  0.00  0.00    -0.206 F 
ATOM     32  O1  non dame1      18.202  24.503  37.267  0.00  0.00    -0.195 OA
ENDBRANCH  18  21
ENDBRANCH   1  17
TORSDOF 3
ENDMDL
MODEL 11
REMARK VINA RESULT:      -0.0      4.940      7.126
REMARK NAME 22411598_Intermediate
REMARK  3 active torsions:
REMARK  status: ('A' for Active; 'I' for Inactive)
REMARK    1  A    between atoms: N2_12  and  C11_13 
REMARK    2  A    between atoms: C11_13  and  C12_14 
REMARK       I    between atoms: C12_14  and  N3_15 
REMARK    3  A    between atoms: N3_15  and  C13_16 
ROOT
ATOM      1  C11 non dame1      15.003  24.789  31.082  0.00  0.00     0.254 C 
ENDROOT
BRANCH   1   2
ATOM      2  N2  non dame1      15.965  24.898  30.014  0.00  0.00    -0.259 N 
ATOM      3  N1  non dame1      15.845  25.728  28.933  0.00  0.00    -0.183 NA
ATOM      4  C10 non dame1      17.067  25.757  28.398  0.00  0.00     0.159 C 
ATOM      5  C9  non dame1      17.921  24.833  29.001  0.00  0.00     0.088 C 
ATOM      6  C8  non dame1      17.146  24.174  29.935  0.00  0.00     0.084 C 
ATOM      7  C22 non dame1      19.305  24.506  28.762  0.00  0.00     0.302 C 
ATOM      8  C6  non dame1      17.630  22.976  30.602  0.00  0.00     0.028 A 
ATOM      9  C5  non dame1      18.993  22.679  30.418  0.00  0.00     0.092 A 
ATOM     10  C7  non dame1      16.849  22.057  31.302  0.00  0.00     0.023 A 
ATOM     11  C4  non dame1      19.593  21.560  30.994  0.00  0.00     0.039 A 
ATOM     12  O4  non dame1      19.823  23.471  29.570  0.00  0.00    -0.274 OA
ATOM     13  C3  non dame1      18.807  20.689  31.744  0.00  0.00     0.009 A 
ATOM     14  C2  non dame1      17.439  20.928  31.884  0.00  0.00    -0.061 A 
ATOM     15  C1  non dame1      16.611  19.978  32.654  0.00  0.00     0.048 C 
ATOM     16  O3  non dame1      19.992  25.063  27.934  0.00  0.00    -0.259 OA
ENDBRANCH   1   2
BRANCH   1  17
ATOM     17  C12 non dame1      15.440  25.632  32.233  0.00  0.00     0.243 C 
ATOM     18  N3  non dame1      15.938  26.889  32.011  0.00  0.00    -0.304 N 
ATOM     19  H10 non dame1      15.992  27.201  31.052  0.00  0.00     0.171 HD
ATOM     20  O2  non dame1      15.352  25.204  33.373  0.00  0.00    -0.271 OA
BRANCH  18  21
ATOM     21  C13 non dame1      16.362  27.709  33.131  0.00  0.00     0.177 A 
ATOM     22  C14 non dame1      17.626  27.813  33.518  0.00  0.00     0.093 A 
ATOM     23  C15 non dame1      17.534  28.742  34.595  0.00  0.00     0.099 A 
ATOM     24  C16 non dame1      18.518  29.282  35.374  0.00  0.00    -0.002 A 
ATOM     25  N4  non dame1      16.261  29.095  34.817  0.00  0.00    -0.126 NA
ATOM     26  C17 non dame1      19.862  28.932  35.161  0.00  0.00     0.014 A 
ATOM     27  C21 non dame1      18.197  30.192  36.393  0.00  0.00     0.056 A 
ATOM     28  C18 non dame1      20.868  29.473  35.967  0.00  0.00     0.004 A 
ATOM     29  C19 non dame1      20.546  30.374  36.985  0.00  0.00     0.042 A 
ATOM     30  C20 non dame1      19.208  30.729  37.191  0.00  0.00     0.117 A 
ATOM     31  F1  non dame1      18.897  31.612  38.192  0.00  0.00    -0.206 F 
ATOM     32  O1  non dame1      15.510  28.433  33.872  0.00  0.00    -0.195 OA
ENDBRANCH  18  21
ENDBRANCH   1  17
TORSDOF 3
ENDMDL
MODEL 12
REMARK VINA RESULT:      -0.0      6.801     10.562
REMARK NAME 22411598_Intermediate
REMARK  3 active torsions:
REMARK  status: ('A' for Active; 'I' for Inactive)
REMARK    1  A    between atoms: N2_12  and  C11_13 
REMARK    2  A    between atoms: C11_13  and  C12_14 
REMARK       I    between atoms: C12_14  and  N3_15 
REMARK    3  A    between atoms: N3_15  and  C13_16 
ROOT
ATOM      1  C11 non dame1      24.514  20.403  37.415  0.00  0.00     0.254 C 
ENDROOT
BRANCH   1   2
ATOM      2  N2  non dame1      25.755  20.750  38.060  0.00  0.00    -0.259 N 
ATOM      3  N1  non dame1      26.854  19.938  38.136  0.00  0.00    -0.183 NA
ATOM      4  C10 non dame1      27.845  20.753  38.502  0.00  0.00     0.159 C 
ATOM      5  C9  non dame1      27.378  22.025  38.834  0.00  0.00     0.088 C 
ATOM      6  C8  non dame1      26.005  21.958  38.698  0.00  0.00     0.084 C 
ATOM      7  C22 non dame1      28.062  23.213  39.282  0.00  0.00     0.302 C 
ATOM      8  C6  non dame1      25.149  23.027  39.184  0.00  0.00     0.028 A 
ATOM      9  C5  non dame1      25.804  24.211  39.573  0.00  0.00     0.092 A 
ATOM     10  C7  non dame1      23.773  22.941  39.397  0.00  0.00     0.023 A 
ATOM     11  C4  non dame1      25.110  25.316  40.061  0.00  0.00     0.039 A 
ATOM     12  O4  non dame1      27.227  24.317  39.554  0.00  0.00    -0.274 OA
ATOM     13  C3  non dame1      23.729  25.232  40.206  0.00  0.00     0.009 A 
ATOM     14  C2  non dame1      23.065  24.044  39.890  0.00  0.00    -0.061 A 
ATOM     15  C1  non dame1      21.603  23.958  40.080  0.00  0.00     0.048 C 
ATOM     16  O3  non dame1      29.263  23.281  39.423  0.00  0.00    -0.259 OA
ENDBRANCH   1   2
BRANCH   1  17
ATOM     17  C12 non dame1      24.489  20.983  36.041  0.00  0.00     0.243 C 
ATOM     18  N3  non dame1      25.603  20.913  35.247  0.00  0.00    -0.304 N 
ATOM     19  H10 non dame1      26.418  20.460  35.635  0.00  0.00     0.171 HD
ATOM     20  O2  non dame1      23.475  21.521  35.623  0.00  0.00    -0.271 OA
BRANCH  18  21
ATOM     21  C13 non dame1      25.577  21.477  33.910  0.00  0.00     0.177 A 
ATOM     22  C14 non dame1      26.049  22.682  33.621  0.00  0.00     0.093 A 
ATOM     23  C15 non dame1      25.844  22.755  32.212  0.00  0.00     0.099 A 
ATOM     24  C16 non dame1      26.167  23.744  31.329  0.00  0.00    -0.002 A 
ATOM     25  N4  non dame1      25.239  21.648  31.758  0.00  0.00    -0.126 NA
ATOM     26  C17 non dame1      26.805  24.914  31.777  0.00  0.00     0.014 A 
ATOM     27  C21 non dame1      25.869  23.603  29.964  0.00  0.00     0.056 A 
ATOM     28  C18 non dame1      27.124  25.933  30.875  0.00  0.00     0.004 A 
ATOM     29  C19 non dame1      26.821  25.793  29.518  0.00  0.00     0.042 A 
ATOM     30  C20 non dame1      26.194  24.625  29.071  0.00  0.00     0.117 A 
ATOM     31  F1  non dame1      25.897  24.493  27.739  0.00  0.00    -0.206 F 
ATOM     32  O1  non dame1      25.073  20.827  32.850  0.00  0.00    -0.195 OA
ENDBRANCH  18  21
ENDBRANCH   1  17
TORSDOF 3
ENDMDL
MODEL 13
REMARK VINA RESULT:      -0.0      0.000      0.000
REMARK NAME 103059844_Intermediate
REMARK  2 active torsions:
REMARK  status: ('A' for Active; 'I' for Inactive)
REMARK       I    between atoms: C2_2  and  N1_3 
REMARK    1  A    between atoms: N1_3  and  C3_4 
REMARK    2  A    between atoms: C8_9  and  C9_10 
ROOT
ATOM      1  C3  non dame1      14.488  30.022  30.975  0.00  0.00     0.047 A 
ATOM      2  C4  non dame1      13.718  31.114  31.383  0.00  0.00     0.030 A 
ATOM      3  C5  non dame1      13.632  32.246  30.564  0.00  0.00     0.002 A 
ATOM      4  C6  non dame1      14.318  32.287  29.347  0.00  0.00     0.001 A 
ATOM      5  C7  non dame1      15.090  31.188  28.954  0.00  0.00     0.016 A 
ATOM      6  C8  non dame1      15.183  30.054  29.764  0.00  0.00     0.018 A 
ENDROOT
BRANCH   6   7
ATOM      7  C9  non dame1      15.976  28.937  29.368  0.00  0.00     0.053 A 
ATOM      8  C10 non dame1      15.460  27.953  28.577  0.00  0.00     0.031 A 
ATOM      9  C11 non dame1      16.305  26.830  28.195  0.00  0.00     0.006 A 
ATOM     10  C12 non dame1      17.585  26.739  28.604  0.00  0.00     0.051 A 
ATOM     11  C13 non dame1      18.138  27.760  29.429  0.00  0.00     0.134 A 
ATOM     12  N2  non dame1      19.339  27.907  29.948  0.00  0.00    -0.241 NA
ATOM     13  N3  non dame1      17.301  28.816  29.774  0.00  0.00    -0.305 N 
ATOM     14  C14 non dame1      19.292  29.093  30.655  0.00  0.00     0.136 A 
ATOM     15  C15 non dame1      18.037  29.663  30.560  0.00  0.00     0.118 A 
ENDBRANCH   6   7
BRANCH   1  16
ATOM     16  N1  non dame1      14.558  28.902  31.784  0.00  0.00    -0.327 N 
ATOM     17  C2  non dame1      13.556  27.969  31.751  0.00  0.00     0.218 C 
ATOM     18  C1  non dame1      13.632  26.761  32.625  0.00  0.00     0.117 C 
ATOM     19  O1  non dame1      12.600  28.126  31.007  0.00  0.00    -0.274 OA
ATOM     20  H4  non dame1      15.345  28.764  32.403  0.00  0.00     0.169 HD
ENDBRANCH   1  16
TORSDOF 2
ENDMDL
MODEL 14
REMARK VINA RESULT:      -0.0      2.773      4.713
REMARK NAME 103059844_Intermediate
REMARK  2 active torsions:
REMARK  status: ('A' for Active; 'I' for Inactive)
REMARK       I    between atoms: C2_2  and  N1_3 
REMARK    1  A    between atoms: N1_3  and  C3_4 
REMARK    2  A    between atoms: C8_9  and  C9_10 
ROOT
ATOM      1  C3  non dame1      16.608  30.508  30.353  0.00  0.00     0.047 A 
ATOM      2  C4  non dame1      16.139  31.395  29.382  0.00  0.00     0.030 A 
ATOM      3  C5  non dame1      15.108  32.288  29.700  0.00  0.00     0.002 A 
ATOM      4  C6  non dame1      14.547  32.288  30.980  0.00  0.00     0.001 A 
ATOM      5  C7  non dame1      15.023  31.388  31.941  0.00  0.00     0.016 A 
ATOM      6  C8  non dame1      16.050  30.493  31.633  0.00  0.00     0.018 A 
ENDROOT
BRANCH   6   7
ATOM      7  C9  non dame1      16.530  29.572  32.610  0.00  0.00     0.053 A 
ATOM      8  C10 non dame1      17.513  29.923  33.487  0.00  0.00     0.031 A 
ATOM      9  C11 non dame1      17.974  28.951  34.468  0.00  0.00     0.006 A 
ATOM     10  C12 non dame1      17.452  27.710  34.532  0.00  0.00     0.051 A 
ATOM     11  C13 non dame1      16.424  27.329  33.623  0.00  0.00     0.134 A 
ATOM     12  N2  non dame1      15.758  26.202  33.483  0.00  0.00    -0.241 NA
ATOM     13  N3  non dame1      16.011  28.283  32.699  0.00  0.00    -0.305 N 
ATOM     14  C14 non dame1      14.881  26.420  32.438  0.00  0.00     0.136 A 
ATOM     15  C15 non dame1      15.030  27.701  31.941  0.00  0.00     0.118 A 
ENDBRANCH   6   7
BRANCH   1  16
ATOM     16  N1  non dame1      17.635  29.637  30.036  0.00  0.00    -0.327 N 
ATOM     17  C2  non dame1      18.935  30.067  30.072  0.00  0.00     0.218 C 
ATOM     18  C1  non dame1      20.042  29.127  29.729  0.00  0.00     0.117 C 
ATOM     19  O1  non dame1      19.187  31.221  30.385  0.00  0.00    -0.274 OA
ATOM     20  H4  non dame1      17.436  28.681  29.776  0.00  0.00     0.169 HD
ENDBRANCH   1  16
TORSDOF 2
ENDMDL
MODEL 15
REMARK VINA RESULT:      -0.0      2.260      3.675
REMARK NAME 103059844_Intermediate
REMARK  2 active torsions:
REMARK  status: ('A' for Active; 'I' for Inactive)
REMARK       I    between atoms: C2_2  and  N1_3 
REMARK    1  A    between atoms: N1_3  and  C3_4 
REMARK    2  A    between atoms: C8_9  and  C9_10 
ROOT
ATOM      1  C3  non dame1      13.743  29.944  28.941  0.00  0.00     0.047 A 
ATOM      2  C4  non dame1      13.272  29.930  27.627  0.00  0.00     0.030 A 
ATOM      3  C5  non dame1      13.304  31.106  26.866  0.00  0.00     0.002 A 
ATOM      4  C6  non dame1      13.801  32.288  27.421  0.00  0.00     0.001 A 
ATOM      5  C7  non dame1      14.264  32.288  28.742  0.00  0.00     0.016 A 
ATOM      6  C8  non dame1      14.235  31.121  29.509  0.00  0.00     0.018 A 
ENDROOT
BRANCH   6   7
ATOM      7  C9  non dame1      14.700  31.123  30.857  0.00  0.00     0.053 A 
ATOM      8  C10 non dame1      13.847  31.351  31.896  0.00  0.00     0.031 A 
ATOM      9  C11 non dame1      14.364  31.344  33.257  0.00  0.00     0.006 A 
ATOM     10  C12 non dame1      15.666  31.117  33.516  0.00  0.00     0.051 A 
ATOM     11  C13 non dame1      16.569  30.876  32.441  0.00  0.00     0.134 A 
ATOM     12  N2  non dame1      17.862  30.627  32.428  0.00  0.00    -0.241 NA
ATOM     13  N3  non dame1      16.039  30.892  31.156  0.00  0.00    -0.305 N 
ATOM     14  C14 non dame1      18.193  30.474  31.095  0.00  0.00     0.136 A 
ATOM     15  C15 non dame1      17.077  30.640  30.297  0.00  0.00     0.118 A 
ENDBRANCH   6   7
BRANCH   1  16
ATOM     16  N1  non dame1      13.719  28.776  29.682  0.00  0.00    -0.327 N 
ATOM     17  C2  non dame1      14.673  27.815  29.478  0.00  0.00     0.218 C 
ATOM     18  C1  non dame1      14.646  26.555  30.278  0.00  0.00     0.117 C 
ATOM     19  O1  non dame1      15.547  27.990  28.642  0.00  0.00    -0.274 OA
ATOM     20  H4  non dame1      13.000  28.623  30.376  0.00  0.00     0.169 HD
ENDBRANCH   1  16
TORSDOF 2
ENDMDL
MODEL 16
REMARK VINA RESULT:      -0.0      0.000      0.000
REMARK NAME 26617127_Intermediate
REMARK  6 active torsions:
REMARK  status: ('A' for Active; 'I' for Inactive)
REMARK    1  A    between atoms: C3_3  and  C4_4 
REMARK    2  A    between atoms: C4_4  and  C5_5 
REMARK    3  A    between atoms: C4_4  and  O1_14 
REMARK       I    between atoms: N2_15  and  C13_17 
REMARK    4  A    between atoms: C13_17  and  C14_18 
REMARK    5  A    between atoms: C17_21  and  O2_24 
REMARK    6  A    between atoms: O2_24  and  C20_25 
ROOT
ATOM      1  C1  non dame1      11.860  24.495  34.124  0.00  0.00     0.022 C 
ATOM      2  C2  non dame1      11.389  25.485  33.067  0.00  0.00     0.030 C 
ATOM      3  C3  non dame1      11.932  26.776  33.597  0.00  0.00     0.122 C 
ATOM      4  N2  non dame1      11.935  26.674  35.022  0.00  0.00    -0.340 N 
ATOM      5  C12 non dame1      11.730  25.287  35.418  0.00  0.00     0.127 C 
ATOM      6  C13 non dame1      12.089  27.653  35.951  0.00  0.00     0.254 C 
ATOM      7  O3  non dame1      12.253  28.811  35.598  0.00  0.00    -0.267 OA
ENDROOT
BRANCH   3   8
ATOM      8  C4  non dame1      13.336  26.994  33.090  0.00  0.00     0.200 C 
BRANCH   8   9
ATOM      9  C5  non dame1      13.381  28.212  32.296  0.00  0.00     0.107 A 
ATOM     10  N1  non dame1      12.360  29.010  32.123  0.00  0.00    -0.242 NA
ATOM     11  C6  non dame1      12.772  30.121  31.408  0.00  0.00     0.075 A 
ATOM     12  C7  non dame1      11.971  31.229  31.064  0.00  0.00     0.033 A 
ATOM     13  C11 non dame1      14.106  30.110  30.995  0.00  0.00     0.035 A 
ATOM     14  C8  non dame1      12.518  32.288  30.327  0.00  0.00     0.002 A 
ATOM     15  C9  non dame1      13.852  32.259  29.925  0.00  0.00     0.002 A 
ATOM     16  C10 non dame1      14.661  31.165  30.256  0.00  0.00     0.021 A 
ATOM     17  S1  non dame1      14.841  28.648  31.535  0.00  0.00    -0.070 SA
ENDBRANCH   8   9
BRANCH   8  18
ATOM     18  O1  non dame1      14.232  27.116  34.203  0.00  0.00    -0.387 OA
ATOM     19  H11 non dame1      15.094  26.772  33.959  0.00  0.00     0.210 HD
ENDBRANCH   8  18
ENDBRANCH   3   8
BRANCH   6  20
ATOM     20  C14 non dame1      12.058  27.322  37.370  0.00  0.00     0.032 A 
ATOM     21  C15 non dame1      10.845  27.345  38.079  0.00  0.00     0.020 A 
ATOM     22  C16 non dame1      10.820  27.039  39.444  0.00  0.00     0.038 A 
ATOM     23  C17 non dame1      12.000  26.703  40.112  0.00  0.00     0.069 A 
ATOM     24  C18 non dame1      13.207  26.673  39.404  0.00  0.00     0.038 A 
ATOM     25  C19 non dame1      13.243  26.975  38.042  0.00  0.00     0.020 A 
BRANCH  23  26
ATOM     26  O2  non dame1      11.982  26.406  41.445  0.00  0.00    -0.344 OA
BRANCH  26  27
ATOM     27  C20 non dame1      12.667  25.168  41.668  0.00  0.00     0.147 C 
ATOM     28  C21 non dame1      13.214  25.082  43.028  0.00  0.00     0.107 C 
ATOM     29  S2  non dame1      11.689  24.216  43.506  0.00  0.00    -0.164 SA
ATOM     30  C22 non dame1      11.740  24.029  41.698  0.00  0.00     0.107 C 
ENDBRANCH  26  27
ENDBRANCH  23  26
ENDBRANCH   6  20
TORSDOF 6
ENDMDL
MODEL 17
REMARK VINA RESULT:      -0.0      1.801      2.194
REMARK NAME 26617127_Intermediate
REMARK  6 active torsions:
REMARK  status: ('A' for Active; 'I' for Inactive)
REMARK    1  A    between atoms: C3_3  and  C4_4 
REMARK    2  A    between atoms: C4_4  and  C5_5 
REMARK    3  A    between atoms: C4_4  and  O1_14 
REMARK       I    between atoms: N2_15  and  C13_17 
REMARK    4  A    between atoms: C13_17  and  C14_18 
REMARK    5  A    between atoms: C17_21  and  O2_24 
REMARK    6  A    between atoms: O2_24  and  C20_25 
ROOT
ATOM      1  C1  non dame1      15.968  25.193  33.394  0.00  0.00     0.022 C 
ATOM      2  C2  non dame1      15.227  25.649  32.144  0.00  0.00     0.030 C 
ATOM      3  C3  non dame1      14.349  26.732  32.690  0.00  0.00     0.122 C 
ATOM      4  N2  non dame1      14.030  26.372  34.035  0.00  0.00    -0.340 N 
ATOM      5  C12 non dame1      14.906  25.296  34.479  0.00  0.00     0.127 C 
ATOM      6  C13 non dame1      13.075  26.883  34.856  0.00  0.00     0.254 C 
ATOM      7  O3  non dame1      12.347  27.781  34.462  0.00  0.00    -0.267 OA
ENDROOT
BRANCH   3   8
ATOM      8  C4  non dame1      15.079  28.052  32.667  0.00  0.00     0.200 C 
BRANCH   8   9
ATOM      9  C5  non dame1      14.363  28.987  31.813  0.00  0.00     0.107 A 
ATOM     10  N1  non dame1      13.217  28.724  31.241  0.00  0.00    -0.242 NA
ATOM     11  C6  non dame1      12.766  29.861  30.592  0.00  0.00     0.075 A 
ATOM     12  C7  non dame1      11.545  29.989  29.899  0.00  0.00     0.033 A 
ATOM     13  C11 non dame1      13.625  30.960  30.638  0.00  0.00     0.035 A 
ATOM     14  C8  non dame1      11.215  31.202  29.278  0.00  0.00     0.002 A 
ATOM     15  C9  non dame1      12.085  32.288  29.336  0.00  0.00     0.002 A 
ATOM     16  C10 non dame1      13.304  32.178  30.017  0.00  0.00     0.021 A 
ATOM     17  S1  non dame1      15.035  30.526  31.528  0.00  0.00    -0.070 SA
ENDBRANCH   8   9
BRANCH   8  18
ATOM     18  O1  non dame1      15.154  28.580  33.997  0.00  0.00    -0.387 OA
ATOM     19  H11 non dame1      15.529  29.464  33.970  0.00  0.00     0.210 HD
ENDBRANCH   8  18
ENDBRANCH   3   8
BRANCH   6  20
ATOM     20  C14 non dame1      12.921  26.360  36.207  0.00  0.00     0.032 A 
ATOM     21  C15 non dame1      12.045  25.291  36.460  0.00  0.00     0.020 A 
ATOM     22  C16 non dame1      11.889  24.799  37.760  0.00  0.00     0.038 A 
ATOM     23  C17 non dame1      12.606  25.364  38.817  0.00  0.00     0.069 A 
ATOM     24  C18 non dame1      13.484  26.424  38.565  0.00  0.00     0.038 A 
ATOM     25  C19 non dame1      13.648  26.921  37.271  0.00  0.00     0.020 A 
BRANCH  23  26
ATOM     26  O2  non dame1      12.456  24.890  40.089  0.00  0.00    -0.344 OA
BRANCH  26  27
ATOM     27  C20 non dame1      13.744  24.624  40.656  0.00  0.00     0.147 C 
ATOM     28  C21 non dame1      13.726  24.706  42.122  0.00  0.00     0.107 C 
ATOM     29  S2  non dame1      13.449  22.910  42.144  0.00  0.00    -0.164 SA
ATOM     30  C22 non dame1      14.135  23.218  40.488  0.00  0.00     0.107 C 
ENDBRANCH  26  27
ENDBRANCH  23  26
ENDBRANCH   6  20
TORSDOF 6
ENDMDL
MODEL 18
REMARK VINA RESULT:      -0.0      6.613      7.825
REMARK NAME 26617127_Intermediate
REMARK  6 active torsions:
REMARK  status: ('A' for Active; 'I' for Inactive)
REMARK    1  A    between atoms: C3_3  and  C4_4 
REMARK    2  A    between atoms: C4_4  and  C5_5 
REMARK    3  A    between atoms: C4_4  and  O1_14 
REMARK       I    between atoms: N2_15  and  C13_17 
REMARK    4  A    between atoms: C13_17  and  C14_18 
REMARK    5  A    between atoms: C17_21  and  O2_24 
REMARK    6  A    between atoms: O2_24  and  C20_25 
ROOT
ATOM      1  C1  non dame1      16.882  24.149  32.738  0.00  0.00     0.022 C 
ATOM      2  C2  non dame1      15.781  25.198  32.662  0.00  0.00     0.030 C 
ATOM      3  C3  non dame1      16.575  26.465  32.571  0.00  0.00     0.122 C 
ATOM      4  N2  non dame1      17.783  26.253  33.303  0.00  0.00    -0.340 N 
ATOM      5  C12 non dame1      17.950  24.832  33.581  0.00  0.00     0.127 C 
ATOM      6  C13 non dame1      18.698  27.162  33.729  0.00  0.00     0.254 C 
ATOM      7  O3  non dame1      18.537  28.349  33.491  0.00  0.00    -0.267 OA
ENDROOT
BRANCH   3   8
ATOM      8  C4  non dame1      16.891  26.777  31.130  0.00  0.00     0.200 C 
BRANCH   8   9
ATOM      9  C5  non dame1      16.295  28.054  30.768  0.00  0.00     0.107 A 
ATOM     10  N1  non dame1      15.669  28.833  31.611  0.00  0.00    -0.242 NA
ATOM     11  C6  non dame1      15.323  30.009  30.967  0.00  0.00     0.075 A 
ATOM     12  C7  non dame1      14.677  31.115  31.555  0.00  0.00     0.033 A 
ATOM     13  C11 non dame1      15.648  30.069  29.611  0.00  0.00     0.035 A 
ATOM     14  C8  non dame1      14.379  32.246  30.781  0.00  0.00     0.002 A 
ATOM     15  C9  non dame1      14.712  32.288  29.428  0.00  0.00     0.002 A 
ATOM     16  C10 non dame1      15.351  31.196  28.828  0.00  0.00     0.021 A 
ATOM     17  S1  non dame1      16.409  28.592  29.156  0.00  0.00    -0.070 SA
ENDBRANCH   8   9
BRANCH   8  18
ATOM     18  O1  non dame1      18.312  26.846  30.956  0.00  0.00    -0.387 OA
ATOM     19  H11 non dame1      18.544  26.514  30.085  0.00  0.00     0.210 HD
ENDBRANCH   8  18
ENDBRANCH   3   8
BRANCH   6  20
ATOM     20  C14 non dame1      19.874  26.721  34.469  0.00  0.00     0.032 A 
ATOM     21  C15 non dame1      19.841  26.641  35.872  0.00  0.00     0.020 A 
ATOM     22  C16 non dame1      20.975  26.229  36.581  0.00  0.00     0.038 A 
ATOM     23  C17 non dame1      22.146  25.891  35.901  0.00  0.00     0.069 A 
ATOM     24  C18 non dame1      22.177  25.963  34.503  0.00  0.00     0.038 A 
ATOM     25  C19 non dame1      21.051  26.371  33.786  0.00  0.00     0.020 A 
BRANCH  23  26
ATOM     26  O2  non dame1      23.257  25.491  36.588  0.00  0.00    -0.344 OA
BRANCH  26  27
ATOM     27  C20 non dame1      23.750  24.267  36.029  0.00  0.00     0.147 C 
ATOM     28  C21 non dame1      25.189  24.098  36.265  0.00  0.00     0.107 C 
ATOM     29  S2  non dame1      24.756  23.138  37.747  0.00  0.00    -0.164 SA
ATOM     30  C22 non dame1      23.238  23.093  36.747  0.00  0.00     0.107 C 
ENDBRANCH  26  27
ENDBRANCH  23  26
ENDBRANCH   6  20
TORSDOF 6
ENDMDL
MODEL 19
REMARK VINA RESULT:      -0.0      0.000      0.000
REMARK NAME 11534736_Intermediate
REMARK  3 active torsions:
REMARK  status: ('A' for Active; 'I' for Inactive)
REMARK    1  A    between atoms: C3_3  and  N1_9 
REMARK    2  A    between atoms: N1_9  and  S1_10 
REMARK    3  A    between atoms: S1_10  and  C8_11 
ROOT
ATOM      1  C8  non dame1      15.555  27.021  29.910  0.00  0.00     0.101 A 
ATOM      2  C9  non dame1      14.879  26.321  30.924  0.00  0.00     0.027 A 
ATOM      3  C10 non dame1      15.331  26.384  32.246  0.00  0.00     0.002 A 
ATOM      4  C11 non dame1      16.460  27.142  32.569  0.00  0.00     0.002 A 
ATOM      5  C12 non dame1      17.137  27.832  31.558  0.00  0.00     0.023 A 
ATOM      6  C13 non dame1      16.695  27.775  30.236  0.00  0.00     0.054 A 
ATOM      7  C14 non dame1      17.384  28.468  29.212  0.00  0.00     0.021 C 
ATOM      8  N2  non dame1      18.071  29.160  28.191  0.00  0.00    -0.096 N 
ENDROOT
BRANCH   1   9
ATOM      9  S1  non dame1      14.976  26.953  28.239  0.00  0.00     0.285 S 
ATOM     10  O1  non dame1      16.251  26.635  27.223  0.00  0.00    -0.198 OA
ATOM     11  O2  non dame1      13.839  25.750  28.096  0.00  0.00    -0.198 OA
BRANCH   9  12
ATOM     12  N1  non dame1      14.297  28.403  27.832  0.00  0.00    -0.160 NA
BRANCH  12  13
ATOM     13  C3  non dame1      13.438  29.085  28.768  0.00  0.00     0.079 A 
ATOM     14  C2  non dame1      13.755  30.372  29.209  0.00  0.00     0.006 A 
ATOM     15  C1  non dame1      14.972  31.031  28.699  0.00  0.00     0.054 C 
ATOM     16  C7  non dame1      12.933  31.032  30.124  0.00  0.00     0.124 A 
ATOM     17  C6  non dame1      11.779  30.399  30.587  0.00  0.00     0.043 A 
ATOM     18  F1  non dame1      13.265  32.288  30.560  0.00  0.00    -0.205 F 
ATOM     19  C5  non dame1      11.445  29.113  30.148  0.00  0.00     0.005 A 
ATOM     20  C4  non dame1      12.279  28.458  29.238  0.00  0.00     0.033 A 
ENDBRANCH  12  13
ENDBRANCH   9  12
ENDBRANCH   1   9
TORSDOF 3
ENDMDL
MODEL 20
REMARK VINA RESULT:      -0.0      9.056     10.806
REMARK NAME 11534736_Intermediate
REMARK  3 active torsions:
REMARK  status: ('A' for Active; 'I' for Inactive)
REMARK    1  A    between atoms: C3_3  and  N1_9 
REMARK    2  A    between atoms: N1_9  and  S1_10 
REMARK    3  A    between atoms: S1_10  and  C8_11 
ROOT
ATOM      1  C8  non dame1      26.445  25.941  32.500  0.00  0.00     0.101 A 
ATOM      2  C9  non dame1      26.532  25.247  33.718  0.00  0.00     0.027 A 
ATOM      3  C10 non dame1      27.043  25.881  34.856  0.00  0.00     0.002 A 
ATOM      4  C11 non dame1      27.474  27.208  34.788  0.00  0.00     0.002 A 
ATOM      5  C12 non dame1      27.395  27.897  33.574  0.00  0.00     0.023 A 
ATOM      6  C13 non dame1      26.888  27.274  32.432  0.00  0.00     0.054 A 
ATOM      7  C14 non dame1      26.814  27.967  31.201  0.00  0.00     0.021 C 
ATOM      8  N2  non dame1      26.740  28.661  29.973  0.00  0.00    -0.096 N 
ENDROOT
BRANCH   1   9
ATOM      9  S1  non dame1      25.785  25.146  31.063  0.00  0.00     0.285 S 
ATOM     10  O1  non dame1      26.799  25.403  29.773  0.00  0.00    -0.198 OA
ATOM     11  O2  non dame1      25.652  23.514  31.347  0.00  0.00    -0.198 OA
BRANCH   9  12
ATOM     12  N1  non dame1      24.294  25.770  30.724  0.00  0.00    -0.160 NA
BRANCH  12  13
ATOM     13  C3  non dame1      23.356  26.016  31.790  0.00  0.00     0.079 A 
ATOM     14  C2  non dame1      22.852  27.302  32.004  0.00  0.00     0.006 A 
ATOM     15  C1  non dame1      23.280  28.402  31.119  0.00  0.00     0.054 C 
ATOM     16  C7  non dame1      21.953  27.549  33.043  0.00  0.00     0.124 A 
ATOM     17  C6  non dame1      21.548  26.494  33.862  0.00  0.00     0.043 A 
ATOM     18  F1  non dame1      21.477  28.818  33.250  0.00  0.00    -0.205 F 
ATOM     19  C5  non dame1      22.040  25.200  33.655  0.00  0.00     0.005 A 
ATOM     20  C4  non dame1      22.946  24.966  32.618  0.00  0.00     0.033 A 
ENDBRANCH  12  13
ENDBRANCH   9  12
ENDBRANCH   1   9
TORSDOF 3
ENDMDL
MODEL 21
REMARK VINA RESULT:      -0.0     11.992     12.984
REMARK NAME 11534736_Intermediate
REMARK  3 active torsions:
REMARK  status: ('A' for Active; 'I' for Inactive)
REMARK    1  A    between atoms: C3_3  and  N1_9 
REMARK    2  A    between atoms: N1_9  and  S1_10 
REMARK    3  A    between atoms: S1_10  and  C8_11 
ROOT
ATOM      1  C8  non dame1      19.269  24.900  40.930  0.00  0.00     0.101 A 
ATOM      2  C9  non dame1      18.836  24.949  42.266  0.00  0.00     0.027 A 
ATOM      3  C10 non dame1      19.446  24.145  43.235  0.00  0.00     0.002 A 
ATOM      4  C11 non dame1      20.489  23.285  42.881  0.00  0.00     0.002 A 
ATOM      5  C12 non dame1      20.915  23.230  41.550  0.00  0.00     0.023 A 
ATOM      6  C13 non dame1      20.313  24.027  40.575  0.00  0.00     0.054 A 
ATOM      7  C14 non dame1      20.738  23.968  39.227  0.00  0.00     0.021 C 
ATOM      8  N2  non dame1      21.164  23.908  37.882  0.00  0.00    -0.096 N 
ENDROOT
BRANCH   1   9
ATOM      9  S1  non dame1      18.509  25.927  39.706  0.00  0.00     0.285 S 
ATOM     10  O1  non dame1      18.131  25.013  38.372  0.00  0.00    -0.198 OA
ATOM     11  O2  non dame1      17.122  26.597  40.330  0.00  0.00    -0.198 OA
BRANCH   9  12
ATOM     12  N1  non dame1      19.554  27.130  39.270  0.00  0.00    -0.160 NA
BRANCH  12  13
ATOM     13  C3  non dame1      20.321  27.819  40.277  0.00  0.00     0.079 A 
ATOM     14  C2  non dame1      21.717  27.820  40.224  0.00  0.00     0.006 A 
ATOM     15  C1  non dame1      22.398  27.118  39.119  0.00  0.00     0.054 C 
ATOM     16  C7  non dame1      22.465  28.475  41.203  0.00  0.00     0.124 A 
ATOM     17  C6  non dame1      21.805  29.145  42.234  0.00  0.00     0.043 A 
ATOM     18  F1  non dame1      23.835  28.454  41.146  0.00  0.00    -0.205 F 
ATOM     19  C5  non dame1      20.407  29.158  42.296  0.00  0.00     0.005 A 
ATOM     20  C4  non dame1      19.668  28.492  41.315  0.00  0.00     0.033 A 
ENDBRANCH  12  13
ENDBRANCH   9  12
ENDBRANCH   1   9
TORSDOF 3
ENDMDL
MODEL 22
REMARK VINA RESULT:      -0.0      0.000      0.000
REMARK NAME 24327827_Intermediate
REMARK  4 active torsions:
REMARK  status: ('A' for Active; 'I' for Inactive)
REMARK    1  A    between atoms: C1_1  and  C18_24 
REMARK    2  A    between atoms: C10_12  and  S1_13 
REMARK    3  A    between atoms: S1_13  and  C11_14 
REMARK    4  A    between atoms: C11_14  and  C12_15 
ROOT
ATOM      1  C1  non dame1      22.097  27.650  37.377  0.00  0.00     0.236 A 
ATOM      2  C2  non dame1      21.211  26.478  37.046  0.00  0.00     0.261 A 
ATOM      3  N1  non dame1      21.204  26.570  35.607  0.00  0.00    -0.241 N 
ATOM      4  C3  non dame1      21.946  27.608  35.176  0.00  0.00     0.147 A 
ATOM      5  C4  non dame1      22.073  27.878  33.802  0.00  0.00     0.039 A 
ATOM      6  C5  non dame1      22.834  28.948  33.290  0.00  0.00     0.018 A 
ATOM      7  C6  non dame1      22.910  29.152  31.903  0.00  0.00     0.001 A 
ATOM      8  C7  non dame1      22.231  28.292  31.026  0.00  0.00     0.002 A 
ATOM      9  C8  non dame1      21.472  27.224  31.528  0.00  0.00     0.032 A 
ATOM     10  C9  non dame1      21.387  27.011  32.913  0.00  0.00     0.073 A 
ATOM     11  N2  non dame1      20.647  25.971  33.403  0.00  0.00    -0.223 NA
ATOM     12  C10 non dame1      20.548  25.741  34.744  0.00  0.00     0.178 A 
ATOM     13  N3  non dame1      22.503  28.293  36.131  0.00  0.00    -0.252 NA
ATOM     14  O1  non dame1      20.612  25.626  37.667  0.00  0.00    -0.270 OA
ENDROOT
BRANCH  12  15
ATOM     15  S1  non dame1      19.607  24.420  35.367  0.00  0.00    -0.087 SA
BRANCH  15  16
ATOM     16  C11 non dame1      20.833  23.139  34.945  0.00  0.00     0.121 C 
BRANCH  16  17
ATOM     17  C12 non dame1      21.835  23.034  36.037  0.00  0.00    -0.048 A 
ATOM     18  C13 non dame1      21.498  22.413  37.251  0.00  0.00     0.009 A 
ATOM     19  C14 non dame1      22.439  22.326  38.285  0.00  0.00     0.024 A 
ATOM     20  C15 non dame1      23.721  22.854  38.114  0.00  0.00     0.034 A 
ATOM     21  C16 non dame1      24.059  23.467  36.902  0.00  0.00     0.024 A 
ATOM     22 Cl1  non dame1      24.907  22.752  39.406  0.00  0.00    -0.084 Cl
ATOM     23  C17 non dame1      23.128  23.558  35.866  0.00  0.00     0.009 A 
ENDBRANCH  16  17
ENDBRANCH  15  16
ENDBRANCH  12  15
BRANCH   1  24
ATOM     24  C18 non dame1      23.290  27.181  38.108  0.00  0.00    -0.024 A 
ATOM     25  C19 non dame1      24.525  27.152  37.455  0.00  0.00     0.010 A 
ATOM     26  C20 non dame1      25.659  26.697  38.138  0.00  0.00     0.001 A 
ATOM     27  C21 non dame1      25.557  26.275  39.467  0.00  0.00     0.000 A 
ATOM     28  C22 non dame1      24.314  26.316  40.109  0.00  0.00     0.001 A 
ATOM     29  C23 non dame1      23.179  26.770  39.437  0.00  0.00     0.010 A 
ENDBRANCH   1  24
TORSDOF 4
ENDMDL
MODEL 23
REMARK VINA RESULT:      -0.0      6.656      8.940
REMARK NAME 24327827_Intermediate
REMARK  4 active torsions:
REMARK  status: ('A' for Active; 'I' for Inactive)
REMARK    1  A    between atoms: C1_1  and  C18_24 
REMARK    2  A    between atoms: C10_12  and  S1_13 
REMARK    3  A    between atoms: S1_13  and  C11_14 
REMARK    4  A    between atoms: C11_14  and  C12_15 
ROOT
ATOM      1  C1  non dame1      17.614  27.122  30.806  0.00  0.00     0.236 A 
ATOM      2  C2  non dame1      18.078  28.228  31.718  0.00  0.00     0.261 A 
ATOM      3  N1  non dame1      17.458  29.359  31.074  0.00  0.00    -0.241 N 
ATOM      4  C3  non dame1      16.762  28.984  29.983  0.00  0.00     0.147 A 
ATOM      5  C4  non dame1      16.078  29.936  29.206  0.00  0.00     0.039 A 
ATOM      6  C5  non dame1      15.334  29.606  28.056  0.00  0.00     0.018 A 
ATOM      7  C6  non dame1      14.680  30.616  27.333  0.00  0.00     0.001 A 
ATOM      8  C7  non dame1      14.763  31.953  27.754  0.00  0.00     0.002 A 
ATOM      9  C8  non dame1      15.501  32.288  28.900  0.00  0.00     0.032 A 
ATOM     10  C9  non dame1      16.161  31.287  29.629  0.00  0.00     0.073 A 
ATOM     11  N2  non dame1      16.882  31.614  30.745  0.00  0.00    -0.223 NA
ATOM     12  C10 non dame1      17.532  30.662  31.473  0.00  0.00     0.178 A 
ATOM     13  N3  non dame1      16.795  27.705  29.747  0.00  0.00    -0.252 NA
ATOM     14  O1  non dame1      18.760  28.315  32.717  0.00  0.00    -0.270 OA
ENDROOT
BRANCH  12  15
ATOM     15  S1  non dame1      18.447  31.077  32.891  0.00  0.00    -0.087 SA
BRANCH  15  16
ATOM     16  C11 non dame1      16.990  31.309  33.959  0.00  0.00     0.121 C 
BRANCH  16  17
ATOM     17  C12 non dame1      16.574  29.999  34.522  0.00  0.00    -0.048 A 
ATOM     18  C13 non dame1      17.321  29.401  35.551  0.00  0.00     0.009 A 
ATOM     19  C14 non dame1      16.936  28.160  36.072  0.00  0.00     0.024 A 
ATOM     20  C15 non dame1      15.804  27.509  35.576  0.00  0.00     0.034 A 
ATOM     21  C16 non dame1      15.056  28.108  34.556  0.00  0.00     0.024 A 
ATOM     22 Cl1  non dame1      15.316  25.950  36.222  0.00  0.00    -0.084 Cl
ATOM     23  C17 non dame1      15.431  29.345  34.030  0.00  0.00     0.009 A 
ENDBRANCH  16  17
ENDBRANCH  15  16
ENDBRANCH  12  15
BRANCH   1  24
ATOM     24  C18 non dame1      16.817  26.146  31.573  0.00  0.00    -0.024 A 
ATOM     25  C19 non dame1      15.431  26.107  31.399  0.00  0.00     0.010 A 
ATOM     26  C20 non dame1      14.667  25.192  32.132  0.00  0.00     0.001 A 
ATOM     27  C21 non dame1      15.287  24.320  33.032  0.00  0.00     0.000 A 
ATOM     28  C22 non dame1      16.676  24.367  33.191  0.00  0.00     0.001 A 
ATOM     29  C23 non dame1      17.447  25.275  32.463  0.00  0.00     0.010 A 
ENDBRANCH   1  24
TORSDOF 4
ENDMDL
MODEL 24
REMARK VINA RESULT:      -0.0      6.056      8.375
REMARK NAME 24327827_Intermediate
REMARK  4 active torsions:
REMARK  status: ('A' for Active; 'I' for Inactive)
REMARK    1  A    between atoms: C1_1  and  C18_24 
REMARK    2  A    between atoms: C10_12  and  S1_13 
REMARK    3  A    between atoms: S1_13  and  C11_14 
REMARK    4  A    between atoms: C11_14  and  C12_15 
ROOT
ATOM      1  C1  non dame1      17.114  25.570  30.347  0.00  0.00     0.236 A 
ATOM      2  C2  non dame1      17.669  26.955  30.138  0.00  0.00     0.261 A 
ATOM      3  N1  non dame1      17.290  27.567  31.388  0.00  0.00    -0.241 N 
ATOM      4  C3  non dame1      16.630  26.700  32.181  0.00  0.00     0.147 A 
ATOM      5  C4  non dame1      16.170  27.095  33.449  0.00  0.00     0.039 A 
ATOM      6  C5  non dame1      15.474  26.235  34.323  0.00  0.00     0.018 A 
ATOM      7  C6  non dame1      15.046  26.707  35.574  0.00  0.00     0.001 A 
ATOM      8  C7  non dame1      15.310  28.031  35.957  0.00  0.00     0.002 A 
ATOM      9  C8  non dame1      16.003  28.893  35.092  0.00  0.00     0.032 A 
ATOM     10  C9  non dame1      16.434  28.433  33.838  0.00  0.00     0.073 A 
ATOM     11  N2  non dame1      17.108  29.272  32.995  0.00  0.00    -0.223 NA
ATOM     12  C10 non dame1      17.540  28.852  31.772  0.00  0.00     0.178 A 
ATOM     13  N3  non dame1      16.480  25.517  31.662  0.00  0.00    -0.252 NA
ATOM     14  O1  non dame1      18.269  27.538  29.261  0.00  0.00    -0.270 OA
ENDROOT
BRANCH  12  15
ATOM     15  S1  non dame1      18.397  29.919  30.700  0.00  0.00    -0.087 SA
BRANCH  15  16
ATOM     16  C11 non dame1      19.973  29.824  31.608  0.00  0.00     0.121 C 
BRANCH  16  17
ATOM     17  C12 non dame1      20.738  28.635  31.151  0.00  0.00    -0.048 A 
ATOM     18  C13 non dame1      21.376  28.641  29.901  0.00  0.00     0.009 A 
ATOM     19  C14 non dame1      22.086  27.515  29.465  0.00  0.00     0.024 A 
ATOM     20  C15 non dame1      22.166  26.378  30.273  0.00  0.00     0.034 A 
ATOM     21  C16 non dame1      21.535  26.375  31.523  0.00  0.00     0.024 A 
ATOM     22 Cl1  non dame1      23.051  24.960  29.733  0.00  0.00    -0.084 Cl
ATOM     23  C17 non dame1      20.826  27.493  31.966  0.00  0.00     0.009 A 
ENDBRANCH  16  17
ENDBRANCH  15  16
ENDBRANCH  12  15
BRANCH   1  24
ATOM     24  C18 non dame1      18.206  24.581  30.280  0.00  0.00    -0.024 A 
ATOM     25  C19 non dame1      18.650  23.970  31.456  0.00  0.00     0.010 A 
ATOM     26  C20 non dame1      19.694  23.040  31.401  0.00  0.00     0.001 A 
ATOM     27  C21 non dame1      20.289  22.721  30.177  0.00  0.00     0.000 A 
ATOM     28  C22 non dame1      19.829  23.336  29.007  0.00  0.00     0.001 A 
ATOM     29  C23 non dame1      18.787  24.264  29.051  0.00  0.00     0.010 A 
ENDBRANCH   1  24
TORSDOF 4
ENDMDL
MODEL 25
REMARK VINA RESULT:       0.0      0.000      0.000
REMARK NAME 24804071_Intermediate
REMARK  8 active torsions:
REMARK  status: ('A' for Active; 'I' for Inactive)
REMARK    1  A    between atoms: O1_1  and  N1_2 
REMARK    2  A    between atoms: N1_2  and  C1_3 
REMARK    3  A    between atoms: C6_8  and  O2_9 
REMARK    4  A    between atoms: O2_9  and  C7_10 
REMARK    5  A    between atoms: C7_10  and  C8_11 
REMARK       I    between atoms: C8_11  and  N2_12 
REMARK    6  A    between atoms: N2_12  and  C9_13 
REMARK    7  A    between atoms: C11_15  and  C16_22 
REMARK    8  A    between atoms: C13_17  and  C15_19 
ROOT
ATOM      1  C8  non dame1      22.412  24.523  37.103  0.00  0.00     0.246 C 
ATOM      2  N2  non dame1      21.691  25.370  36.304  0.00  0.00    -0.325 N 
ATOM      3  O7  non dame1      22.012  24.258  38.227  0.00  0.00    -0.271 OA
ATOM      4  H9  non dame1      22.032  25.579  35.377  0.00  0.00     0.169 HD
ENDROOT
BRANCH   1   5
ATOM      5  C7  non dame1      23.682  23.924  36.602  0.00  0.00     0.278 C 
BRANCH   5   6
ATOM      6  O2  non dame1      24.111  22.909  37.495  0.00  0.00    -0.339 OA
BRANCH   6   7
ATOM      7  C6  non dame1      23.992  21.690  36.890  0.00  0.00     0.115 A 
ATOM      8  C5  non dame1      24.880  21.303  35.886  0.00  0.00     0.040 A 
ATOM      9  C4  non dame1      24.755  20.056  35.261  0.00  0.00     0.003 A 
ATOM     10  C3  non dame1      23.727  19.193  35.650  0.00  0.00     0.003 A 
ATOM     11  C2  non dame1      22.832  19.571  36.657  0.00  0.00     0.053 A 
ATOM     12  C1  non dame1      22.974  20.815  37.275  0.00  0.00     0.263 A 
BRANCH  12  13
ATOM     13  N1  non dame1      22.057  21.192  38.320  0.00  0.00     0.183 N 
ATOM     14  O8  non dame1      21.221  20.057  38.662  0.00  0.00    -0.032 OA
ATOM     15  H2  non dame1      21.480  21.954  37.994  0.00  0.00     0.411 HD
BRANCH  13  16
ATOM     16  O1  non dame1      22.802  21.613  39.489  0.00  0.00    -0.155 OA
ATOM     17  H1  non dame1      22.478  22.466  39.786  0.00  0.00     0.261 HD
ENDBRANCH  13  16
ENDBRANCH  12  13
ENDBRANCH   6   7
ENDBRANCH   5   6
ENDBRANCH   1   5
BRANCH   2  18
ATOM     18  C9  non dame1      20.501  25.928  36.775  0.00  0.00     0.036 A 
ATOM     19  C10 non dame1      20.513  27.169  37.434  0.00  0.00     0.048 A 
ATOM     20  C11 non dame1      19.322  27.722  37.918  0.00  0.00     0.043 A 
ATOM     21  C12 non dame1      18.113  27.046  37.746  0.00  0.00     0.037 A 
ATOM     22  C13 non dame1      18.101  25.814  37.083  0.00  0.00     0.043 A 
ATOM     23  C14 non dame1      19.283  25.253  36.596  0.00  0.00     0.048 A 
BRANCH  20  24
ATOM     24  C16 non dame1      19.349  28.997  38.602  0.00  0.00     0.209 C 
ATOM     25  O5  non dame1      18.303  29.542  38.916  0.00  0.00    -0.644 OA
ATOM     26  O6  non dame1      20.534  29.587  38.891  0.00  0.00    -0.644 OA
ENDBRANCH  20  24
BRANCH  22  27
ATOM     27  C15 non dame1      16.845  25.119  36.907  0.00  0.00     0.209 C 
ATOM     28  O3  non dame1      15.948  25.260  37.725  0.00  0.00    -0.644 OA
ATOM     29  O4  non dame1      16.661  24.312  35.833  0.00  0.00    -0.644 OA
ENDBRANCH  22  27
ENDBRANCH   2  18
TORSDOF 8
ENDMDL
MODEL 26
REMARK VINA RESULT:       0.0      6.462      8.299
REMARK NAME 24804071_Intermediate
REMARK  8 active torsions:
REMARK  status: ('A' for Active; 'I' for Inactive)
REMARK    1  A    between atoms: O1_1  and  N1_2 
REMARK    2  A    between atoms: N1_2  and  C1_3 
REMARK    3  A    between atoms: C6_8  and  O2_9 
REMARK    4  A    between atoms: O2_9  and  C7_10 
REMARK    5  A    between atoms: C7_10  and  C8_11 
REMARK       I    between atoms: C8_11  and  N2_12 
REMARK    6  A    between atoms: N2_12  and  C9_13 
REMARK    7  A    between atoms: C11_15  and  C16_22 
REMARK    8  A    between atoms: C13_17  and  C15_19 
ROOT
ATOM      1  C8  non dame1      16.199  26.319  33.497  0.00  0.00     0.246 C 
ATOM      2  N2  non dame1      16.527  27.602  33.149  0.00  0.00    -0.325 N 
ATOM      3  O7  non dame1      15.034  26.026  33.721  0.00  0.00    -0.271 OA
ATOM      4  H9  non dame1      17.493  27.829  32.966  0.00  0.00     0.169 HD
ENDROOT
BRANCH   1   5
ATOM      5  C7  non dame1      17.262  25.278  33.601  0.00  0.00     0.278 C 
BRANCH   5   6
ATOM      6  O2  non dame1      16.662  24.003  33.757  0.00  0.00    -0.339 OA
BRANCH   6   7
ATOM      7  C6  non dame1      16.868  23.260  32.628  0.00  0.00     0.115 A 
ATOM      8  C5  non dame1      18.132  22.750  32.332  0.00  0.00     0.040 A 
ATOM      9  C4  non dame1      18.345  21.995  31.172  0.00  0.00     0.003 A 
ATOM     10  C3  non dame1      17.277  21.753  30.305  0.00  0.00     0.003 A 
ATOM     11  C2  non dame1      16.004  22.259  30.594  0.00  0.00     0.053 A 
ATOM     12  C1  non dame1      15.806  23.005  31.758  0.00  0.00     0.263 A 
BRANCH  12  13
ATOM     13  N1  non dame1      14.492  23.512  32.056  0.00  0.00     0.183 N 
ATOM     14  O8  non dame1      13.535  22.956  31.117  0.00  0.00    -0.032 OA
ATOM     15  H2  non dame1      14.500  24.518  31.978  0.00  0.00     0.411 HD
BRANCH  13  16
ATOM     16  O1  non dame1      14.121  23.132  33.404  0.00  0.00    -0.155 OA
ATOM     17  H1  non dame1      13.371  22.532  33.373  0.00  0.00     0.261 HD
ENDBRANCH  13  16
ENDBRANCH  12  13
ENDBRANCH   6   7
ENDBRANCH   5   6
ENDBRANCH   1   5
BRANCH   2  18
ATOM     18  C9  non dame1      15.529  28.573  33.052  0.00  0.00     0.036 A 
ATOM     19  C10 non dame1      15.182  29.347  34.172  0.00  0.00     0.048 A 
ATOM     20  C11 non dame1      14.172  30.312  34.078  0.00  0.00     0.043 A 
ATOM     21  C12 non dame1      13.505  30.515  32.868  0.00  0.00     0.037 A 
ATOM     22  C13 non dame1      13.857  29.750  31.751  0.00  0.00     0.043 A 
ATOM     23  C14 non dame1      14.863  28.784  31.833  0.00  0.00     0.048 A 
BRANCH  20  24
ATOM     24  C16 non dame1      13.819  31.096  35.241  0.00  0.00     0.209 C 
ATOM     25  O5  non dame1      14.402  30.915  36.299  0.00  0.00    -0.644 OA
ATOM     26  O6  non dame1      12.840  32.030  35.159  0.00  0.00    -0.644 OA
ENDBRANCH  20  24
BRANCH  22  27
ATOM     27  C15 non dame1      13.164  29.965  30.500  0.00  0.00     0.209 C 
ATOM     28  O3  non dame1      12.236  30.759  30.444  0.00  0.00    -0.644 OA
ATOM     29  O4  non dame1      13.544  29.289  29.389  0.00  0.00    -0.644 OA
ENDBRANCH  22  27
ENDBRANCH   2  18
TORSDOF 8
ENDMDL
MODEL 27
REMARK VINA RESULT:       0.0      5.512      7.200
REMARK NAME 24804071_Intermediate
REMARK  8 active torsions:
REMARK  status: ('A' for Active; 'I' for Inactive)
REMARK    1  A    between atoms: O1_1  and  N1_2 
REMARK    2  A    between atoms: N1_2  and  C1_3 
REMARK    3  A    between atoms: C6_8  and  O2_9 
REMARK    4  A    between atoms: O2_9  and  C7_10 
REMARK    5  A    between atoms: C7_10  and  C8_11 
REMARK       I    between atoms: C8_11  and  N2_12 
REMARK    6  A    between atoms: N2_12  and  C9_13 
REMARK    7  A    between atoms: C11_15  and  C16_22 
REMARK    8  A    between atoms: C13_17  and  C15_19 
ROOT
ATOM      1  C8  non dame1      25.575  26.127  39.425  0.00  0.00     0.246 C 
ATOM      2  N2  non dame1      24.257  25.761  39.488  0.00  0.00    -0.325 N 
ATOM      3  O7  non dame1      25.879  27.251  39.055  0.00  0.00    -0.271 OA
ATOM      4  H9  non dame1      24.020  24.829  39.796  0.00  0.00     0.169 HD
ENDROOT
BRANCH   1   5
ATOM      5  C7  non dame1      26.639  25.155  39.809  0.00  0.00     0.278 C 
BRANCH   5   6
ATOM      6  O2  non dame1      27.889  25.822  39.873  0.00  0.00    -0.339 OA
BRANCH   6   7
ATOM      7  C6  non dame1      28.309  25.879  41.171  0.00  0.00     0.115 A 
ATOM      8  C5  non dame1      28.766  24.733  41.823  0.00  0.00     0.040 A 
ATOM      9  C4  non dame1      29.190  24.789  43.156  0.00  0.00     0.003 A 
ATOM     10  C3  non dame1      29.156  26.008  43.837  0.00  0.00     0.003 A 
ATOM     11  C2  non dame1      28.702  27.164  43.191  0.00  0.00     0.053 A 
ATOM     12  C1  non dame1      28.287  27.093  41.860  0.00  0.00     0.263 A 
BRANCH  12  13
ATOM     13  N1  non dame1      27.833  28.289  41.198  0.00  0.00     0.183 N 
ATOM     14  O8  non dame1      28.091  29.438  42.045  0.00  0.00    -0.032 OA
ATOM     15  H2  non dame1      26.842  28.213  41.020  0.00  0.00     0.411 HD
BRANCH  13  16
ATOM     16  O1  non dame1      28.542  28.446  39.943  0.00  0.00    -0.155 OA
ATOM     17  H1  non dame1      29.362  27.948  39.974  0.00  0.00     0.261 HD
ENDBRANCH  13  16
ENDBRANCH  12  13
ENDBRANCH   6   7
ENDBRANCH   5   6
ENDBRANCH   1   5
BRANCH   2  18
ATOM     18  C9  non dame1      23.264  26.674  39.129  0.00  0.00     0.036 A 
ATOM     19  C10 non dame1      22.809  26.742  37.802  0.00  0.00     0.048 A 
ATOM     20  C11 non dame1      21.822  27.666  37.439  0.00  0.00     0.043 A 
ATOM     21  C12 non dame1      21.279  28.525  38.396  0.00  0.00     0.037 A 
ATOM     22  C13 non dame1      21.726  28.452  39.720  0.00  0.00     0.043 A 
ATOM     23  C14 non dame1      22.710  27.534  40.092  0.00  0.00     0.048 A 
BRANCH  20  24
ATOM     24  C16 non dame1      21.369  27.731  36.066  0.00  0.00     0.209 C 
ATOM     25  O5  non dame1      20.521  28.547  35.743  0.00  0.00    -0.644 OA
ATOM     26  O6  non dame1      21.883  26.885  35.141  0.00  0.00    -0.644 OA
ENDBRANCH  20  24
BRANCH  22  27
ATOM     27  C15 non dame1      21.160  29.343  40.707  0.00  0.00     0.209 C 
ATOM     28  O3  non dame1      20.327  30.174  40.375  0.00  0.00    -0.644 OA
ATOM     29  O4  non dame1      21.550  29.258  42.002  0.00  0.00    -0.644 OA
ENDBRANCH  22  27
ENDBRANCH   2  18
TORSDOF 8
ENDMDL
MODEL 28
REMARK VINA RESULT:      -0.0      0.000      0.000
REMARK NAME 26661716_Intermediate
REMARK  2 active torsions:
REMARK  status: ('A' for Active; 'I' for Inactive)
REMARK    1  A    between atoms: O1_1  and  C1_2 
REMARK    2  A    between atoms: C4_5  and  C7_8 
ROOT
ATOM      1  C7  non dame1      16.728  29.718  29.478  0.00  0.00     0.085 A 
ATOM      2  C8  non dame1      15.555  29.152  29.863  0.00  0.00     0.130 A 
ATOM      3  N1  non dame1      14.636  30.105  29.512  0.00  0.00    -0.315 N 
ATOM      4  C9  non dame1      13.251  30.104  29.663  0.00  0.00     0.098 A 
ATOM      5  C10 non dame1      12.547  31.165  29.238  0.00  0.00     0.018 A 
ATOM      6  C11 non dame1      13.255  32.283  28.630  0.00  0.00     0.005 A 
ATOM      7  C12 non dame1      14.594  32.277  28.488  0.00  0.00     0.051 A 
ATOM      8  C13 non dame1      15.347  31.154  28.939  0.00  0.00     0.134 A 
ATOM      9  N2  non dame1      16.640  30.907  28.923  0.00  0.00    -0.229 NA
ENDROOT
BRANCH   1  10
ATOM     10  C4  non dame1      17.926  29.089  29.658  0.00  0.00    -0.006 A 
ATOM     11  C3  non dame1      17.981  27.825  30.251  0.00  0.00     0.016 A 
ATOM     12  C2  non dame1      19.212  27.185  30.431  0.00  0.00     0.037 A 
ATOM     13  C1  non dame1      20.386  27.814  30.010  0.00  0.00     0.065 A 
ATOM     14  C6  non dame1      20.343  29.080  29.424  0.00  0.00     0.037 A 
ATOM     15  C5  non dame1      19.111  29.710  29.247  0.00  0.00     0.016 A 
BRANCH  13  16
ATOM     16  O1  non dame1      21.520  27.211  30.169  0.00  0.00    -0.361 OA
ATOM     17  H1  non dame1      21.948  27.104  29.316  0.00  0.00     0.217 HD
ENDBRANCH  13  16
ENDBRANCH   1  10
TORSDOF 2
ENDMDL
MODEL 29
REMARK VINA RESULT:      -0.0      4.727      6.704
REMARK NAME 26661716_Intermediate
REMARK  2 active torsions:
REMARK  status: ('A' for Active; 'I' for Inactive)
REMARK    1  A    between atoms: O1_1  and  C1_2 
REMARK    2  A    between atoms: C4_5  and  C7_8 
ROOT
ATOM      1  C7  non dame1      14.017  26.837  28.550  0.00  0.00     0.085 A 
ATOM      2  C8  non dame1      13.039  26.101  27.961  0.00  0.00     0.130 A 
ATOM      3  N1  non dame1      13.450  24.816  28.200  0.00  0.00    -0.315 N 
ATOM      4  C9  non dame1      12.859  23.610  27.832  0.00  0.00     0.098 A 
ATOM      5  C10 non dame1      13.452  22.457  28.183  0.00  0.00     0.018 A 
ATOM      6  C11 non dame1      14.695  22.507  28.939  0.00  0.00     0.005 A 
ATOM      7  C12 non dame1      15.261  23.678  29.292  0.00  0.00     0.051 A 
ATOM      8  C13 non dame1      14.637  24.904  28.920  0.00  0.00     0.134 A 
ATOM      9  N2  non dame1      14.980  26.157  29.131  0.00  0.00    -0.229 NA
ENDROOT
BRANCH   1  10
ATOM     10  C4  non dame1      13.999  28.202  28.536  0.00  0.00    -0.006 A 
ATOM     11  C3  non dame1      12.960  28.892  27.906  0.00  0.00     0.016 A 
ATOM     12  C2  non dame1      12.947  30.291  27.898  0.00  0.00     0.037 A 
ATOM     13  C1  non dame1      13.976  30.995  28.527  0.00  0.00     0.065 A 
ATOM     14  C6  non dame1      15.024  30.316  29.152  0.00  0.00     0.037 A 
ATOM     15  C5  non dame1      15.027  28.921  29.156  0.00  0.00     0.016 A 
BRANCH  13  16
ATOM     16  O1  non dame1      13.951  32.288  28.525  0.00  0.00    -0.361 OA
ATOM     17  H1  non dame1      14.847  32.626  28.458  0.00  0.00     0.217 HD
ENDBRANCH  13  16
ENDBRANCH   1  10
TORSDOF 2
ENDMDL
MODEL 30
REMARK VINA RESULT:      -0.0      3.535      4.611
REMARK NAME 26661716_Intermediate
REMARK  2 active torsions:
REMARK  status: ('A' for Active; 'I' for Inactive)
REMARK    1  A    between atoms: O1_1  and  C1_2 
REMARK    2  A    between atoms: C4_5  and  C7_8 
ROOT
ATOM      1  C7  non dame1      14.563  27.688  29.619  0.00  0.00     0.085 A 
ATOM      2  C8  non dame1      15.699  28.414  29.455  0.00  0.00     0.130 A 
ATOM      3  N1  non dame1      15.236  29.702  29.505  0.00  0.00    -0.315 N 
ATOM      4  C9  non dame1      15.933  30.902  29.389  0.00  0.00     0.098 A 
ATOM      5  C10 non dame1      15.258  32.061  29.472  0.00  0.00     0.018 A 
ATOM      6  C11 non dame1      13.818  32.024  29.683  0.00  0.00     0.005 A 
ATOM      7  C12 non dame1      13.151  30.858  29.795  0.00  0.00     0.051 A 
ATOM      8  C13 non dame1      13.862  29.627  29.705  0.00  0.00     0.134 A 
ATOM      9  N2  non dame1      13.454  28.376  29.773  0.00  0.00    -0.229 NA
ENDROOT
BRANCH   1  10
ATOM     10  C4  non dame1      14.574  26.322  29.624  0.00  0.00    -0.006 A 
ATOM     11  C3  non dame1      13.389  25.603  29.796  0.00  0.00     0.016 A 
ATOM     12  C2  non dame1      13.407  24.204  29.797  0.00  0.00     0.037 A 
ATOM     13  C1  non dame1      14.618  23.530  29.621  0.00  0.00     0.065 A 
ATOM     14  C6  non dame1      15.809  24.238  29.457  0.00  0.00     0.037 A 
ATOM     15  C5  non dame1      15.780  25.633  29.455  0.00  0.00     0.016 A 
BRANCH  13  16
ATOM     16  O1  non dame1      14.626  22.236  29.611  0.00  0.00    -0.361 OA
ATOM     17  H1  non dame1      14.245  21.907  30.429  0.00  0.00     0.217 HD
ENDBRANCH  13  16
ENDBRANCH   1  10
TORSDOF 2
ENDMDL
MODEL 31
REMARK VINA RESULT:      -0.0      0.000      0.000
REMARK NAME 49819547_Accepted
REMARK  9 active torsions:
REMARK  status: ('A' for Active; 'I' for Inactive)
REMARK    1  A    between atoms: C1_1  and  C2_2 
REMARK    2  A    between atoms: C1_1  and  C10_11 
REMARK    3  A    between atoms: C2_2  and  C3_3 
REMARK    4  A    between atoms: C8_8  and  O1_9 
REMARK       I    between atoms: C10_11  and  N1_12 
REMARK    5  A    between atoms: N1_12  and  C11_13 
REMARK    6  A    between atoms: C11_13  and  C12_14 
REMARK    7  A    between atoms: C19_21  and  N2_22 
REMARK    8  A    between atoms: N3_23  and  C20_24 
REMARK    9  A    between atoms: C20_24  and  C21_25 
ROOT
ATOM      1  C10 non dame1      19.152  26.916  32.245  0.00  0.00     0.225 C 
ATOM      2  N1  non dame1      18.226  26.567  33.192  0.00  0.00    -0.306 N 
ATOM      3  C18 non dame1      16.899  26.699  32.926  0.00  0.00     0.150 C 
ATOM      4  C19 non dame1      16.021  26.346  33.882  0.00  0.00     0.138 C 
ATOM      5  N3  non dame1      14.679  26.450  33.600  0.00  0.00    -0.279 N 
ATOM      6  C27 non dame1      14.148  26.814  32.399  0.00  0.00     0.331 C 
ATOM      7  N4  non dame1      15.032  27.102  31.412  0.00  0.00    -0.273 N 
ATOM      8  C28 non dame1      16.472  27.231  31.586  0.00  0.00     0.280 C 
ATOM      9  O2  non dame1      17.220  27.704  30.760  0.00  0.00    -0.265 OA
ATOM     10  O3  non dame1      12.949  26.871  32.235  0.00  0.00    -0.246 OA
ATOM     11  O4  non dame1      18.787  27.345  31.162  0.00  0.00    -0.273 OA
ATOM     12  H28 non dame1      14.599  27.227  30.508  0.00  0.00     0.173 HD
ENDROOT
BRANCH   2  13
ATOM     13  C11 non dame1      18.656  26.062  34.465  0.00  0.00     0.171 C 
BRANCH  13  14
ATOM     14  C12 non dame1      19.294  27.157  35.242  0.00  0.00    -0.040 A 
ATOM     15  C13 non dame1      20.427  26.899  36.031  0.00  0.00     0.009 A 
ATOM     16  C14 non dame1      21.018  27.926  36.774  0.00  0.00     0.001 A 
ATOM     17  C15 non dame1      20.490  29.220  36.732  0.00  0.00     0.000 A 
ATOM     18  C16 non dame1      19.365  29.477  35.939  0.00  0.00     0.001 A 
ATOM     19  C17 non dame1      18.766  28.458  35.195  0.00  0.00     0.009 A 
ENDBRANCH  13  14
ENDBRANCH   2  13
BRANCH   1  20
ATOM     20  C1  non dame1      20.607  26.769  32.536  0.00  0.00     0.108 C 
BRANCH  20  21
ATOM     21  C2  non dame1      21.390  27.799  31.738  0.00  0.00     0.051 C 
BRANCH  21  22
ATOM     22  C3  non dame1      21.776  28.926  32.626  0.00  0.00    -0.024 A 
ATOM     23  C4  non dame1      22.817  28.772  33.558  0.00  0.00     0.010 A 
ATOM     24  C5  non dame1      23.171  29.829  34.402  0.00  0.00     0.001 A 
ATOM     25  C6  non dame1      22.496  31.049  34.324  0.00  0.00     0.003 A 
ATOM     26  C7  non dame1      21.463  31.206  33.391  0.00  0.00     0.037 A 
ATOM     27  C8  non dame1      21.103  30.158  32.542  0.00  0.00     0.074 A 
BRANCH  27  28
ATOM     28  O1  non dame1      20.100  30.313  31.629  0.00  0.00    -0.355 OA
ATOM     29  C9  non dame1      18.922  30.741  32.288  0.00  0.00     0.210 C 
ENDBRANCH  27  28
ENDBRANCH  21  22
ENDBRANCH  20  21
ENDBRANCH   1  20
BRANCH   4  30
ATOM     30  N2  non dame1      16.565  25.885  35.133  0.00  0.00    -0.383 N 
ATOM     31  H19 non dame1      16.118  26.140  36.003  0.00  0.00     0.157 HD
ATOM     32  H20 non dame1      17.393  25.306  35.141  0.00  0.00     0.157 HD
ENDBRANCH   4  30
BRANCH   5  33
ATOM     33  C20 non dame1      13.814  26.139  34.691  0.00  0.00     0.174 C 
BRANCH  33  34
ATOM     34  C21 non dame1      13.282  27.399  35.275  0.00  0.00    -0.040 A 
ATOM     35  C22 non dame1      11.897  27.578  35.431  0.00  0.00     0.009 A 
ATOM     36  C23 non dame1      11.397  28.768  35.968  0.00  0.00     0.001 A 
ATOM     37  C24 non dame1      12.273  29.788  36.358  0.00  0.00     0.000 A 
ATOM     38  C25 non dame1      13.651  29.604  36.208  0.00  0.00     0.001 A 
ATOM     39  C26 non dame1      14.160  28.420  35.676  0.00  0.00     0.009 A 
ENDBRANCH  33  34
ENDBRANCH   5  33
TORSDOF 9
ENDMDL
MODEL 32
REMARK VINA RESULT:      -0.0      5.176      7.253
REMARK NAME 49819547_Accepted
REMARK  9 active torsions:
REMARK  status: ('A' for Active; 'I' for Inactive)
REMARK    1  A    between atoms: C1_1  and  C2_2 
REMARK    2  A    between atoms: C1_1  and  C10_11 
REMARK    3  A    between atoms: C2_2  and  C3_3 
REMARK    4  A    between atoms: C8_8  and  O1_9 
REMARK       I    between atoms: C10_11  and  N1_12 
REMARK    5  A    between atoms: N1_12  and  C11_13 
REMARK    6  A    between atoms: C11_13  and  C12_14 
REMARK    7  A    between atoms: C19_21  and  N2_22 
REMARK    8  A    between atoms: N3_23  and  C20_24 
REMARK    9  A    between atoms: C20_24  and  C21_25 
ROOT
ATOM      1  C10 non dame1      23.946  27.276  33.394  0.00  0.00     0.225 C 
ATOM      2  N1  non dame1      22.708  27.486  33.938  0.00  0.00    -0.306 N 
ATOM      3  C18 non dame1      22.470  28.603  34.677  0.00  0.00     0.150 C 
ATOM      4  C19 non dame1      21.241  28.774  35.195  0.00  0.00     0.138 C 
ATOM      5  N3  non dame1      20.994  29.919  35.914  0.00  0.00    -0.279 N 
ATOM      6  C27 non dame1      21.871  30.948  36.092  0.00  0.00     0.331 C 
ATOM      7  N4  non dame1      23.087  30.809  35.510  0.00  0.00    -0.273 N 
ATOM      8  C28 non dame1      23.584  29.593  34.881  0.00  0.00     0.280 C 
ATOM      9  O2  non dame1      24.739  29.409  34.569  0.00  0.00    -0.265 OA
ATOM     10  O3  non dame1      21.565  31.928  36.735  0.00  0.00    -0.246 OA
ATOM     11  O4  non dame1      24.838  28.090  33.570  0.00  0.00    -0.273 OA
ATOM     12  H28 non dame1      23.648  31.648  35.546  0.00  0.00     0.173 HD
ENDROOT
BRANCH   2  13
ATOM     13  C11 non dame1      21.659  26.528  33.731  0.00  0.00     0.171 C 
BRANCH  13  14
ATOM     14  C12 non dame1      21.974  25.281  34.476  0.00  0.00    -0.040 A 
ATOM     15  C13 non dame1      21.672  24.027  33.919  0.00  0.00     0.009 A 
ATOM     16  C14 non dame1      21.955  22.854  34.628  0.00  0.00     0.001 A 
ATOM     17  C15 non dame1      22.546  22.920  35.892  0.00  0.00     0.000 A 
ATOM     18  C16 non dame1      22.853  24.170  36.444  0.00  0.00     0.001 A 
ATOM     19  C17 non dame1      22.573  25.347  35.746  0.00  0.00     0.009 A 
ENDBRANCH  13  14
ENDBRANCH   2  13
BRANCH   1  20
ATOM     20  C1  non dame1      24.206  26.051  32.583  0.00  0.00     0.108 C 
BRANCH  20  21
ATOM     21  C2  non dame1      25.675  25.676  32.686  0.00  0.00     0.051 C 
BRANCH  21  22
ATOM     22  C3  non dame1      25.832  24.540  33.630  0.00  0.00    -0.024 A 
ATOM     23  C4  non dame1      25.454  23.241  33.248  0.00  0.00     0.010 A 
ATOM     24  C5  non dame1      25.591  22.175  34.142  0.00  0.00     0.001 A 
ATOM     25  C6  non dame1      26.109  22.390  35.420  0.00  0.00     0.003 A 
ATOM     26  C7  non dame1      26.491  23.682  35.800  0.00  0.00     0.037 A 
ATOM     27  C8  non dame1      26.361  24.754  34.915  0.00  0.00     0.074 A 
BRANCH  27  28
ATOM     28  O1  non dame1      26.741  26.013  35.283  0.00  0.00    -0.355 OA
ATOM     29  C9  non dame1      26.049  26.390  36.460  0.00  0.00     0.210 C 
ENDBRANCH  27  28
ENDBRANCH  21  22
ENDBRANCH  20  21
ENDBRANCH   1  20
BRANCH   4  30
ATOM     30  N2  non dame1      20.277  27.732  34.952  0.00  0.00    -0.383 N 
ATOM     31  H19 non dame1      20.580  26.771  34.879  0.00  0.00     0.157 HD
ATOM     32  H20 non dame1      19.298  27.962  34.854  0.00  0.00     0.157 HD
ENDBRANCH   4  30
BRANCH   5  33
ATOM     33  C20 non dame1      19.696  29.987  36.503  0.00  0.00     0.174 C 
BRANCH  33  34
ATOM     34  C21 non dame1      19.794  29.679  37.954  0.00  0.00    -0.040 A 
ATOM     35  C22 non dame1      20.420  28.498  38.387  0.00  0.00     0.009 A 
ATOM     36  C23 non dame1      20.500  28.203  39.751  0.00  0.00     0.001 A 
ATOM     37  C24 non dame1      19.962  29.084  40.696  0.00  0.00     0.000 A 
ATOM     38  C25 non dame1      19.346  30.263  40.263  0.00  0.00     0.001 A 
ATOM     39  C26 non dame1      19.263  30.568  38.904  0.00  0.00     0.009 A 
ENDBRANCH  33  34
ENDBRANCH   5  33
TORSDOF 9
ENDMDL
MODEL 33
REMARK VINA RESULT:      -0.0      5.195      8.644
REMARK NAME 49819547_Accepted
REMARK  9 active torsions:
REMARK  status: ('A' for Active; 'I' for Inactive)
REMARK    1  A    between atoms: C1_1  and  C2_2 
REMARK    2  A    between atoms: C1_1  and  C10_11 
REMARK    3  A    between atoms: C2_2  and  C3_3 
REMARK    4  A    between atoms: C8_8  and  O1_9 
REMARK       I    between atoms: C10_11  and  N1_12 
REMARK    5  A    between atoms: N1_12  and  C11_13 
REMARK    6  A    between atoms: C11_13  and  C12_14 
REMARK    7  A    between atoms: C19_21  and  N2_22 
REMARK    8  A    between atoms: N3_23  and  C20_24 
REMARK    9  A    between atoms: C20_24  and  C21_25 
ROOT
ATOM      1  C10 non dame1      17.311  20.763  35.460  0.00  0.00     0.225 C 
ATOM      2  N1  non dame1      18.554  21.069  35.944  0.00  0.00    -0.306 N 
ATOM      3  C18 non dame1      18.679  21.782  37.095  0.00  0.00     0.150 C 
ATOM      4  C19 non dame1      19.918  22.063  37.538  0.00  0.00     0.138 C 
ATOM      5  N3  non dame1      20.042  22.757  38.719  0.00  0.00    -0.279 N 
ATOM      6  C27 non dame1      19.013  23.128  39.532  0.00  0.00     0.331 C 
ATOM      7  N4  non dame1      17.767  22.783  39.123  0.00  0.00    -0.273 N 
ATOM      8  C28 non dame1      17.437  22.224  37.819  0.00  0.00     0.280 C 
ATOM      9  O2  non dame1      16.312  22.130  37.381  0.00  0.00    -0.265 OA
ATOM     10  O3  non dame1      19.214  23.731  40.564  0.00  0.00    -0.246 OA
ATOM     11  O4  non dame1      16.313  21.129  36.061  0.00  0.00    -0.273 OA
ATOM     12  H28 non dame1      17.054  22.950  39.818  0.00  0.00     0.173 HD
ENDROOT
BRANCH   2  13
ATOM     13  C11 non dame1      19.727  20.638  35.237  0.00  0.00     0.171 C 
BRANCH  13  14
ATOM     14  C12 non dame1      19.855  21.413  33.974  0.00  0.00    -0.040 A 
ATOM     15  C13 non dame1      20.333  20.792  32.808  0.00  0.00     0.009 A 
ATOM     16  C14 non dame1      20.468  21.525  31.624  0.00  0.00     0.001 A 
ATOM     17  C15 non dame1      20.123  22.878  31.590  0.00  0.00     0.000 A 
ATOM     18  C16 non dame1      19.640  23.494  32.751  0.00  0.00     0.001 A 
ATOM     19  C17 non dame1      19.503  22.772  33.939  0.00  0.00     0.009 A 
ENDBRANCH  13  14
ENDBRANCH   2  13
BRANCH   1  20
ATOM     20  C1  non dame1      17.174  19.980  34.198  0.00  0.00     0.108 C 
BRANCH  20  21
ATOM     21  C2  non dame1      15.878  20.361  33.502  0.00  0.00     0.051 C 
BRANCH  21  22
ATOM     22  C3  non dame1      16.173  21.288  32.379  0.00  0.00    -0.024 A 
ATOM     23  C4  non dame1      16.761  20.807  31.196  0.00  0.00     0.010 A 
ATOM     24  C5  non dame1      17.049  21.683  30.145  0.00  0.00     0.001 A 
ATOM     25  C6  non dame1      16.751  23.042  30.258  0.00  0.00     0.003 A 
ATOM     26  C7  non dame1      16.160  23.522  31.433  0.00  0.00     0.037 A 
ATOM     27  C8  non dame1      15.866  22.656  32.489  0.00  0.00     0.074 A 
BRANCH  27  28
ATOM     28  O1  non dame1      15.283  23.123  33.632  0.00  0.00    -0.355 OA
ATOM     29  C9  non dame1      16.076  24.163  34.176  0.00  0.00     0.210 C 
ENDBRANCH  27  28
ENDBRANCH  21  22
ENDBRANCH  20  21
ENDBRANCH   1  20
BRANCH   4  30
ATOM     30  N2  non dame1      21.021  21.611  36.730  0.00  0.00    -0.383 N 
ATOM     31  H19 non dame1      21.951  21.964  36.903  0.00  0.00     0.157 HD
ATOM     32  H20 non dame1      20.863  20.942  35.990  0.00  0.00     0.157 HD
ENDBRANCH   4  30
BRANCH   5  33
ATOM     33  C20 non dame1      21.382  23.091  39.077  0.00  0.00     0.174 C 
BRANCH  33  34
ATOM     34  C21 non dame1      21.631  24.525  38.778  0.00  0.00    -0.040 A 
ATOM     35  C22 non dame1      21.359  25.040  37.499  0.00  0.00     0.009 A 
ATOM     36  C23 non dame1      21.606  26.386  37.214  0.00  0.00     0.001 A 
ATOM     37  C24 non dame1      22.122  27.232  38.202  0.00  0.00     0.000 A 
ATOM     38  C25 non dame1      22.386  26.719  39.476  0.00  0.00     0.001 A 
ATOM     39  C26 non dame1      22.140  25.378  39.771  0.00  0.00     0.009 A 
ENDBRANCH  33  34
ENDBRANCH   5  33
TORSDOF 9
ENDMDL
MODEL 34
REMARK VINA RESULT:      -0.0      0.000      0.000
REMARK NAME 24288718_Intermediate
REMARK  7 active torsions:
REMARK  status: ('A' for Active; 'I' for Inactive)
REMARK    1  A    between atoms: C2_2  and  C3_3 
REMARK    2  A    between atoms: C2_2  and  N2_14 
REMARK       I    between atoms: C3_3  and  N1_4 
REMARK    3  A    between atoms: N1_4  and  C4_5 
REMARK    4  A    between atoms: C4_5  and  C5_6 
REMARK    5  A    between atoms: C5_6  and  C6_7 
REMARK    6  A    between atoms: N2_14  and  C12_15 
REMARK    7  A    between atoms: N2_14  and  S1_21 
ROOT
ATOM      1  C1  non dame1      25.549  21.999  39.065  0.00  0.00     0.043 C 
ATOM      2  C2  non dame1      25.314  23.324  39.773  0.00  0.00     0.189 C 
ENDROOT
BRANCH   2   3
ATOM      3  C3  non dame1      24.874  23.067  41.176  0.00  0.00     0.241 C 
ATOM      4  N1  non dame1      24.426  21.825  41.535  0.00  0.00    -0.359 N 
ATOM      5  H5  non dame1      24.413  21.120  40.813  0.00  0.00     0.162 HD
ATOM      6  O1  non dame1      24.914  23.965  42.002  0.00  0.00    -0.271 OA
BRANCH   4   7
ATOM      7  C4  non dame1      23.996  21.572  42.908  0.00  0.00     0.127 C 
BRANCH   7   8
ATOM      8  C5  non dame1      22.651  20.865  42.895  0.00  0.00     0.058 C 
BRANCH   8   9
ATOM      9  C6  non dame1      21.579  21.845  43.157  0.00  0.00    -0.057 A 
ATOM     10  C7  non dame1      20.251  21.490  42.902  0.00  0.00     0.007 A 
ATOM     11  C8  non dame1      19.231  22.419  43.135  0.00  0.00     0.001 A 
ATOM     12  C9  non dame1      19.535  23.690  43.624  0.00  0.00     0.000 A 
ATOM     13  C10 non dame1      20.868  24.029  43.882  0.00  0.00     0.001 A 
ATOM     14  C11 non dame1      21.894  23.111  43.652  0.00  0.00     0.007 A 
ENDBRANCH   8   9
ENDBRANCH   7   8
ENDBRANCH   4   7
ENDBRANCH   2   3
BRANCH   2  15
ATOM     15  N2  non dame1      24.276  24.079  39.066  0.00  0.00    -0.263 N 
BRANCH  15  16
ATOM     16  C12 non dame1      22.878  23.733  39.244  0.00  0.00     0.045 A 
ATOM     17  C13 non dame1      22.355  22.568  38.656  0.00  0.00     0.030 A 
ATOM     18  C14 non dame1      21.004  22.241  38.819  0.00  0.00     0.002 A 
ATOM     19  C15 non dame1      20.165  23.069  39.571  0.00  0.00     0.000 A 
ATOM     20  C16 non dame1      20.688  24.223  40.162  0.00  0.00     0.002 A 
ATOM     21  C17 non dame1      22.035  24.558  40.007  0.00  0.00     0.030 A 
ENDBRANCH  15  16
BRANCH  15  22
ATOM     22  S1  non dame1      24.697  25.328  38.069  0.00  0.00     0.230 S 
ATOM     23  C18 non dame1      24.901  26.806  39.026  0.00  0.00     0.186 C 
ATOM     24  O2  non dame1      23.500  25.562  36.940  0.00  0.00    -0.206 OA
ATOM     25  O3  non dame1      26.121  24.965  37.298  0.00  0.00    -0.206 OA
ENDBRANCH  15  22
ENDBRANCH   2  15
TORSDOF 7
ENDMDL
MODEL 35
REMARK VINA RESULT:      -0.0      5.982      8.745
REMARK NAME 24288718_Intermediate
REMARK  7 active torsions:
REMARK  status: ('A' for Active; 'I' for Inactive)
REMARK    1  A    between atoms: C2_2  and  C3_3 
REMARK    2  A    between atoms: C2_2  and  N2_14 
REMARK       I    between atoms: C3_3  and  N1_4 
REMARK    3  A    between atoms: N1_4  and  C4_5 
REMARK    4  A    between atoms: C4_5  and  C5_6 
REMARK    5  A    between atoms: C5_6  and  C6_7 
REMARK    6  A    between atoms: N2_14  and  C12_15 
REMARK    7  A    between atoms: N2_14  and  S1_21 
ROOT
ATOM      1  C1  non dame1      23.189  27.384  38.185  0.00  0.00     0.043 C 
ATOM      2  C2  non dame1      21.738  27.032  37.895  0.00  0.00     0.189 C 
ENDROOT
BRANCH   2   3
ATOM      3  C3  non dame1      21.681  26.037  36.783  0.00  0.00     0.241 C 
ATOM      4  N1  non dame1      22.775  25.842  35.984  0.00  0.00    -0.359 N 
ATOM      5  H5  non dame1      23.593  26.397  36.189  0.00  0.00     0.162 HD
ATOM      6  O1  non dame1      20.659  25.397  36.588  0.00  0.00    -0.271 OA
BRANCH   4   7
ATOM      7  C4  non dame1      22.721  24.868  34.897  0.00  0.00     0.127 C 
BRANCH   7   8
ATOM      8  C5  non dame1      23.243  25.506  33.620  0.00  0.00     0.058 C 
BRANCH   8   9
ATOM      9  C6  non dame1      22.105  25.911  32.772  0.00  0.00    -0.057 A 
ATOM     10  C7  non dame1      22.332  26.759  31.683  0.00  0.00     0.007 A 
ATOM     11  C8  non dame1      21.256  27.157  30.884  0.00  0.00     0.001 A 
ATOM     12  C9  non dame1      19.964  26.709  31.166  0.00  0.00     0.000 A 
ATOM     13  C10 non dame1      19.754  25.855  32.255  0.00  0.00     0.001 A 
ATOM     14  C11 non dame1      20.820  25.450  33.060  0.00  0.00     0.007 A 
ENDBRANCH   8   9
ENDBRANCH   7   8
ENDBRANCH   4   7
ENDBRANCH   2   3
BRANCH   2  15
ATOM     15  N2  non dame1      21.009  28.242  37.504  0.00  0.00    -0.263 N 
BRANCH  15  16
ATOM     16  C12 non dame1      21.143  28.769  36.159  0.00  0.00     0.045 A 
ATOM     17  C13 non dame1      22.319  29.436  35.773  0.00  0.00     0.030 A 
ATOM     18  C14 non dame1      22.443  29.954  34.478  0.00  0.00     0.002 A 
ATOM     19  C15 non dame1      21.400  29.807  33.558  0.00  0.00     0.000 A 
ATOM     20  C16 non dame1      20.234  29.136  33.941  0.00  0.00     0.002 A 
ATOM     21  C17 non dame1      20.101  28.614  35.230  0.00  0.00     0.030 A 
ENDBRANCH  15  16
BRANCH  15  22
ATOM     22  S1  non dame1      20.030  29.005  38.596  0.00  0.00     0.230 S 
ATOM     23  C18 non dame1      18.444  28.213  38.622  0.00  0.00     0.186 C 
ATOM     24  O2  non dame1      19.846  30.596  38.156  0.00  0.00    -0.206 OA
ATOM     25  O3  non dame1      20.716  28.923  40.105  0.00  0.00    -0.206 OA
ENDBRANCH  15  22
ENDBRANCH   2  15
TORSDOF 7
ENDMDL
MODEL 36
REMARK VINA RESULT:      -0.0      4.205      7.108
REMARK NAME 24288718_Intermediate
REMARK  7 active torsions:
REMARK  status: ('A' for Active; 'I' for Inactive)
REMARK    1  A    between atoms: C2_2  and  C3_3 
REMARK    2  A    between atoms: C2_2  and  N2_14 
REMARK       I    between atoms: C3_3  and  N1_4 
REMARK    3  A    between atoms: N1_4  and  C4_5 
REMARK    4  A    between atoms: C4_5  and  C5_6 
REMARK    5  A    between atoms: C5_6  and  C6_7 
REMARK    6  A    between atoms: N2_14  and  C12_15 
REMARK    7  A    between atoms: N2_14  and  S1_21 
ROOT
ATOM      1  C1  non dame1      17.477  22.819  39.633  0.00  0.00     0.043 C 
ATOM      2  C2  non dame1      18.514  23.832  40.093  0.00  0.00     0.189 C 
ENDROOT
BRANCH   2   3
ATOM      3  C3  non dame1      18.447  25.042  39.221  0.00  0.00     0.241 C 
ATOM      4  N1  non dame1      17.802  24.982  38.015  0.00  0.00    -0.359 N 
ATOM      5  H5  non dame1      17.391  24.094  37.764  0.00  0.00     0.162 HD
ATOM      6  O1  non dame1      18.965  26.086  39.585  0.00  0.00    -0.271 OA
BRANCH   4   7
ATOM      7  C4  non dame1      17.734  26.166  37.163  0.00  0.00     0.127 C 
BRANCH   7   8
ATOM      8  C5  non dame1      18.130  25.791  35.744  0.00  0.00     0.058 C 
BRANCH   8   9
ATOM      9  C6  non dame1      19.532  26.185  35.506  0.00  0.00    -0.057 A 
ATOM     10  C7  non dame1      20.201  25.684  34.385  0.00  0.00     0.007 A 
ATOM     11  C8  non dame1      21.535  26.043  34.160  0.00  0.00     0.001 A 
ATOM     12  C9  non dame1      22.193  26.899  35.045  0.00  0.00     0.000 A 
ATOM     13  C10 non dame1      21.507  27.398  36.158  0.00  0.00     0.001 A 
ATOM     14  C11 non dame1      20.177  27.047  36.393  0.00  0.00     0.007 A 
ENDBRANCH   8   9
ENDBRANCH   7   8
ENDBRANCH   4   7
ENDBRANCH   2   3
BRANCH   2  15
ATOM     15  N2  non dame1      19.852  23.240  40.001  0.00  0.00    -0.263 N 
BRANCH  15  16
ATOM     16  C12 non dame1      20.514  23.136  38.714  0.00  0.00     0.045 A 
ATOM     17  C13 non dame1      20.093  22.178  37.775  0.00  0.00     0.030 A 
ATOM     18  C14 non dame1      20.740  22.072  36.539  0.00  0.00     0.002 A 
ATOM     19  C15 non dame1      21.807  22.920  36.226  0.00  0.00     0.000 A 
ATOM     20  C16 non dame1      22.219  23.878  37.159  0.00  0.00     0.002 A 
ATOM     21  C17 non dame1      21.580  23.993  38.395  0.00  0.00     0.030 A 
ENDBRANCH  15  16
BRANCH  15  22
ATOM     22  S1  non dame1      20.607  22.692  41.365  0.00  0.00     0.230 S 
ATOM     23  C18 non dame1      21.427  24.043  42.169  0.00  0.00     0.186 C 
ATOM     24  O2  non dame1      21.726  21.535  40.952  0.00  0.00    -0.206 OA
ATOM     25  O3  non dame1      19.483  22.034  42.394  0.00  0.00    -0.206 OA
ENDBRANCH  15  22
ENDBRANCH   2  15
TORSDOF 7
ENDMDL
MODEL 37
REMARK VINA RESULT:      -0.0      0.000      0.000
REMARK NAME 17460430_Accepted
REMARK  4 active torsions:
REMARK  status: ('A' for Active; 'I' for Inactive)
REMARK    1  A    between atoms: N1_3  and  C16_18 
REMARK    2  A    between atoms: N2_6  and  C5_7 
REMARK    3  A    between atoms: C5_7  and  C6_8 
REMARK    4  A    between atoms: C16_18  and  C17_19 
ROOT
ATOM      1  C1  non dame1      12.922  30.019  33.301  0.00  0.00     0.265 C 
ATOM      2  C2  non dame1      14.057  29.898  32.261  0.00  0.00     0.300 C 
ATOM      3  N1  non dame1      14.910  31.161  32.260  0.00  0.00     0.096 N 
ATOM      4  C3  non dame1      15.423  31.523  33.648  0.00  0.00     0.300 C 
ATOM      5  C4  non dame1      14.240  31.605  34.624  0.00  0.00     0.265 C 
ATOM      6  N2  non dame1      13.466  30.363  34.619  0.00  0.00    -0.064 N 
ATOM      7  H9  non dame1      12.684  30.494  35.246  0.00  0.00     0.280 HD
ENDROOT
BRANCH   6   8
ATOM      8  C5  non dame1      14.330  29.282  35.056  0.00  0.00     0.273 C 
BRANCH   8   9
ATOM      9  C6  non dame1      14.311  29.201  36.540  0.00  0.00    -0.032 A 
ATOM     10  C7  non dame1      13.099  29.108  37.233  0.00  0.00     0.010 A 
ATOM     11  C8  non dame1      13.088  29.060  38.631  0.00  0.00     0.013 A 
ATOM     12  C9  non dame1      14.286  29.096  39.364  0.00  0.00    -0.026 A 
ATOM     13  C10 non dame1      14.289  29.054  40.768  0.00  0.00     0.012 A 
ATOM     14  C14 non dame1      15.514  29.169  38.672  0.00  0.00    -0.025 A 
ATOM     15  C11 non dame1      15.490  29.083  41.478  0.00  0.00     0.001 A 
ATOM     16  C12 non dame1      16.701  29.151  40.796  0.00  0.00     0.001 A 
ATOM     17  C13 non dame1      16.714  29.192  39.401  0.00  0.00     0.012 A 
ATOM     18  C15 non dame1      15.507  29.217  37.270  0.00  0.00     0.021 A 
ENDBRANCH   8   9
ENDBRANCH   6   8
BRANCH   3  19
ATOM     19  C16 non dame1      14.109  32.262  31.759  0.00  0.00     0.312 C 
BRANCH  19  20
ATOM     20  C17 non dame1      14.157  32.274  30.284  0.00  0.00    -0.013 A 
ATOM     21  C18 non dame1      12.998  32.285  29.513  0.00  0.00     0.012 A 
ATOM     22  C19 non dame1      13.125  32.273  28.119  0.00  0.00     0.020 A 
ATOM     23  C20 non dame1      14.396  32.272  27.543  0.00  0.00     0.116 A 
ATOM     24  N3  non dame1      15.511  32.277  28.289  0.00  0.00    -0.273 NA
ATOM     25  C21 non dame1      15.377  32.275  29.632  0.00  0.00     0.125 A 
ENDBRANCH  19  20
ENDBRANCH   3  19
TORSDOF 4
ENDMDL
MODEL 38
REMARK VINA RESULT:      -0.0      6.952      8.643
REMARK NAME 17460430_Accepted
REMARK  4 active torsions:
REMARK  status: ('A' for Active; 'I' for Inactive)
REMARK    1  A    between atoms: N1_3  and  C16_18 
REMARK    2  A    between atoms: N2_6  and  C5_7 
REMARK    3  A    between atoms: C5_7  and  C6_8 
REMARK    4  A    between atoms: C16_18  and  C17_19 
ROOT
ATOM      1  C1  non dame1      20.679  29.302  31.355  0.00  0.00     0.265 C 
ATOM      2  C2  non dame1      19.500  29.862  32.181  0.00  0.00     0.300 C 
ATOM      3  N1  non dame1      18.218  29.835  31.358  0.00  0.00     0.096 N 
ATOM      4  C3  non dame1      17.924  28.459  30.775  0.00  0.00     0.300 C 
ATOM      5  C4  non dame1      19.147  27.966  29.987  0.00  0.00     0.265 C 
ATOM      6  N2  non dame1      20.349  27.976  30.821  0.00  0.00    -0.064 N 
ATOM      7  H9  non dame1      21.121  27.683  30.238  0.00  0.00     0.280 HD
ENDROOT
BRANCH   6   8
ATOM      8  C5  non dame1      20.143  27.069  31.935  0.00  0.00     0.273 C 
BRANCH   8   9
ATOM      9  C6  non dame1      20.507  25.689  31.525  0.00  0.00    -0.032 A 
ATOM     10  C7  non dame1      21.764  25.417  30.976  0.00  0.00     0.010 A 
ATOM     11  C8  non dame1      22.090  24.119  30.567  0.00  0.00     0.013 A 
ATOM     12  C9  non dame1      21.170  23.066  30.705  0.00  0.00    -0.026 A 
ATOM     13  C10 non dame1      21.481  21.760  30.293  0.00  0.00     0.012 A 
ATOM     14  C14 non dame1      19.906  23.328  31.276  0.00  0.00    -0.025 A 
ATOM     15  C11 non dame1      20.556  20.726  30.446  0.00  0.00     0.001 A 
ATOM     16  C12 non dame1      19.311  20.983  31.013  0.00  0.00     0.001 A 
ATOM     17  C13 non dame1      18.988  22.276  31.428  0.00  0.00     0.012 A 
ATOM     18  C15 non dame1      19.596  24.636  31.681  0.00  0.00     0.021 A 
ENDBRANCH   8   9
ENDBRANCH   6   8
BRANCH   3  19
ATOM     19  C16 non dame1      18.346  30.783  30.267  0.00  0.00     0.312 C 
BRANCH  19  20
ATOM     20  C17 non dame1      17.015  31.323  29.926  0.00  0.00    -0.013 A 
ATOM     21  C18 non dame1      16.152  31.814  30.901  0.00  0.00     0.012 A 
ATOM     22  C19 non dame1      14.896  32.288  30.502  0.00  0.00     0.020 A 
ATOM     23  C20 non dame1      14.555  32.279  29.149  0.00  0.00     0.116 A 
ATOM     24  N3  non dame1      15.396  31.819  28.209  0.00  0.00    -0.273 NA
ATOM     25  C21 non dame1      16.598  31.351  28.608  0.00  0.00     0.125 A 
ENDBRANCH  19  20
ENDBRANCH   3  19
TORSDOF 4
ENDMDL
MODEL 39
REMARK VINA RESULT:      -0.0      3.832      5.030
REMARK NAME 17460430_Accepted
REMARK  4 active torsions:
REMARK  status: ('A' for Active; 'I' for Inactive)
REMARK    1  A    between atoms: N1_3  and  C16_18 
REMARK    2  A    between atoms: N2_6  and  C5_7 
REMARK    3  A    between atoms: C5_7  and  C6_8 
REMARK    4  A    between atoms: C16_18  and  C17_19 
ROOT
ATOM      1  C1  non dame1      15.499  29.740  34.151  0.00  0.00     0.265 C 
ATOM      2  C2  non dame1      14.408  30.639  33.531  0.00  0.00     0.300 C 
ATOM      3  N1  non dame1      14.237  30.319  32.051  0.00  0.00     0.096 N 
ATOM      4  C3  non dame1      13.991  28.837  31.796  0.00  0.00     0.300 C 
ATOM      5  C4  non dame1      15.105  28.014  32.458  0.00  0.00     0.265 C 
ATOM      6  N2  non dame1      15.215  28.326  33.883  0.00  0.00    -0.064 N 
ATOM      7  H9  non dame1      15.987  27.787  34.250  0.00  0.00     0.280 HD
ENDROOT
BRANCH   6   8
ATOM      8  C5  non dame1      13.963  27.979  34.528  0.00  0.00     0.273 C 
BRANCH   8   9
ATOM      9  C6  non dame1      13.984  26.543  34.910  0.00  0.00    -0.032 A 
ATOM     10  C7  non dame1      15.034  26.024  35.674  0.00  0.00     0.010 A 
ATOM     11  C8  non dame1      15.060  24.665  36.006  0.00  0.00     0.013 A 
ATOM     12  C9  non dame1      14.035  23.800  35.590  0.00  0.00    -0.026 A 
ATOM     13  C10 non dame1      14.052  22.433  35.911  0.00  0.00     0.012 A 
ATOM     14  C14 non dame1      12.961  24.320  34.836  0.00  0.00    -0.025 A 
ATOM     15  C11 non dame1      13.019  21.591  35.495  0.00  0.00     0.001 A 
ATOM     16  C12 non dame1      11.958  22.104  34.755  0.00  0.00     0.001 A 
ATOM     17  C13 non dame1      11.927  23.461  34.429  0.00  0.00     0.012 A 
ATOM     18  C15 non dame1      12.951  25.685  34.510  0.00  0.00     0.021 A 
ENDBRANCH   8   9
ENDBRANCH   6   8
BRANCH   3  19
ATOM     19  C16 non dame1      15.441  30.717  31.347  0.00  0.00     0.312 C 
BRANCH  19  20
ATOM     20  C17 non dame1      15.110  31.030  29.943  0.00  0.00    -0.013 A 
ATOM     21  C18 non dame1      15.784  30.433  28.881  0.00  0.00     0.012 A 
ATOM     22  C19 non dame1      15.428  30.798  27.577  0.00  0.00     0.020 A 
ATOM     23  C20 non dame1      14.404  31.723  27.376  0.00  0.00     0.116 A 
ATOM     24  N3  non dame1      13.745  32.285  28.401  0.00  0.00    -0.273 NA
ATOM     25  C21 non dame1      14.106  31.937  29.654  0.00  0.00     0.125 A 
ENDBRANCH  19  20
ENDBRANCH   3  19
TORSDOF 4
ENDMDL
MODEL 40
REMARK VINA RESULT:      -0.0      0.000      0.000
REMARK NAME 24356822_Intermediate
REMARK  5 active torsions:
REMARK  status: ('A' for Active; 'I' for Inactive)
REMARK    1  A    between atoms: C2_2  and  N1_3 
REMARK    2  A    between atoms: N1_3  and  C3_4 
REMARK       I    between atoms: N1_3  and  C5_6 
REMARK    3  A    between atoms: C5_6  and  C6_7 
REMARK    4  A    between atoms: C6_7  and  N2_8 
REMARK    5  A    between atoms: N3_10  and  C16_21 
ROOT
ATOM      1  N2  non dame1      18.559  27.450  39.748  0.00  0.00    -0.283 N 
ATOM      2  C7  non dame1      17.558  26.602  40.138  0.00  0.00     0.337 A 
ATOM      3  N3  non dame1      17.741  25.878  41.297  0.00  0.00    -0.229 N 
ATOM      4  C8  non dame1      18.849  25.915  42.128  0.00  0.00     0.270 A 
ATOM      5  C9  non dame1      19.881  26.819  41.682  0.00  0.00     0.074 A 
ATOM      6  C10 non dame1      21.142  27.155  42.214  0.00  0.00    -0.026 A 
ATOM      7  C11 non dame1      21.953  26.774  43.397  0.00  0.00     0.041 C 
ATOM      8  C12 non dame1      23.356  27.359  43.036  0.00  0.00     0.010 C 
ATOM      9  C13 non dame1      23.127  28.470  41.961  0.00  0.00     0.047 C 
ATOM     10  C14 non dame1      21.798  28.081  41.439  0.00  0.00    -0.008 A 
ATOM     11  S1  non dame1      20.941  28.568  40.079  0.00  0.00    -0.075 SA
ATOM     12  C15 non dame1      19.680  27.530  40.525  0.00  0.00     0.097 A 
ATOM     13  O1  non dame1      18.901  25.232  43.129  0.00  0.00    -0.266 OA
ATOM     14  O2  non dame1      16.554  26.512  39.467  0.00  0.00    -0.246 OA
ENDROOT
BRANCH   1  15
ATOM     15  C6  non dame1      18.426  28.223  38.558  0.00  0.00     0.237 C 
BRANCH  15  16
ATOM     16  C5  non dame1      17.510  29.373  38.812  0.00  0.00     0.238 C 
ATOM     17  N1  non dame1      16.487  29.639  37.942  0.00  0.00    -0.351 N 
ATOM     18  O3  non dame1      17.675  30.080  39.796  0.00  0.00    -0.272 OA
BRANCH  17  19
ATOM     19  C2  non dame1      15.605  30.746  38.187  0.00  0.00     0.121 C 
ATOM     20  C1  non dame1      15.920  31.865  37.219  0.00  0.00     0.026 C 
ENDBRANCH  17  19
BRANCH  17  21
ATOM     21  C3  non dame1      16.293  28.809  36.786  0.00  0.00     0.121 C 
ATOM     22  C4  non dame1      14.894  28.234  36.805  0.00  0.00     0.026 C 
ENDBRANCH  17  21
ENDBRANCH  15  16
ENDBRANCH   1  15
BRANCH   3  23
ATOM     23  C16 non dame1      16.674  25.051  41.603  0.00  0.00     0.047 A 
ATOM     24  C17 non dame1      16.640  23.732  41.117  0.00  0.00     0.032 A 
ATOM     25  C18 non dame1      15.556  22.898  41.417  0.00  0.00     0.026 A 
ATOM     26  C19 non dame1      14.502  23.371  42.204  0.00  0.00     0.034 A 
ATOM     27  C20 non dame1      14.540  24.682  42.692  0.00  0.00     0.026 A 
ATOM     28 Cl1  non dame1      13.135  22.333  42.582  0.00  0.00    -0.084 Cl
ATOM     29  C21 non dame1      15.617  25.520  42.401  0.00  0.00     0.032 A 
ENDBRANCH   3  23
TORSDOF 5
ENDMDL
MODEL 41
REMARK VINA RESULT:      -0.0      7.726     10.843
REMARK NAME 24356822_Intermediate
REMARK  5 active torsions:
REMARK  status: ('A' for Active; 'I' for Inactive)
REMARK    1  A    between atoms: C2_2  and  N1_3 
REMARK    2  A    between atoms: N1_3  and  C3_4 
REMARK       I    between atoms: N1_3  and  C5_6 
REMARK    3  A    between atoms: C5_6  and  C6_7 
REMARK    4  A    between atoms: C6_7  and  N2_8 
REMARK    5  A    between atoms: N3_10  and  C16_21 
ROOT
ATOM      1  N2  non dame1      19.943  27.919  33.457  0.00  0.00    -0.283 N 
ATOM      2  C7  non dame1      21.310  27.929  33.522  0.00  0.00     0.337 A 
ATOM      3  N3  non dame1      22.013  27.759  32.348  0.00  0.00    -0.229 N 
ATOM      4  C8  non dame1      21.478  27.576  31.083  0.00  0.00     0.270 A 
ATOM      5  C9  non dame1      20.035  27.570  31.057  0.00  0.00     0.074 A 
ATOM      6  C10 non dame1      19.106  27.417  30.008  0.00  0.00    -0.026 A 
ATOM      7  C11 non dame1      19.159  27.206  28.540  0.00  0.00     0.041 C 
ATOM      8  C12 non dame1      17.684  26.806  28.212  0.00  0.00     0.010 C 
ATOM      9  C13 non dame1      16.796  27.330  29.387  0.00  0.00     0.047 C 
ATOM     10  C14 non dame1      17.809  27.481  30.455  0.00  0.00    -0.008 A 
ATOM     11  S1  non dame1      17.665  27.723  32.110  0.00  0.00    -0.075 SA
ATOM     12  C15 non dame1      19.353  27.740  32.236  0.00  0.00     0.097 A 
ATOM     13  O1  non dame1      22.196  27.436  30.116  0.00  0.00    -0.266 OA
ATOM     14  O2  non dame1      21.857  28.085  34.591  0.00  0.00    -0.246 OA
ENDROOT
BRANCH   1  15
ATOM     15  C6  non dame1      19.163  28.091  34.637  0.00  0.00     0.237 C 
BRANCH  15  16
ATOM     16  C5  non dame1      19.163  29.530  35.030  0.00  0.00     0.238 C 
ATOM     17  N1  non dame1      19.435  29.886  36.323  0.00  0.00    -0.351 N 
ATOM     18  O3  non dame1      18.919  30.390  34.197  0.00  0.00    -0.272 OA
BRANCH  17  19
ATOM     19  C2  non dame1      19.435  31.272  36.701  0.00  0.00     0.121 C 
ATOM     20  C1  non dame1      18.193  31.575  37.510  0.00  0.00     0.026 C 
ENDBRANCH  17  19
BRANCH  17  21
ATOM     21  C3  non dame1      19.722  28.875  37.303  0.00  0.00     0.121 C 
ATOM     22  C4  non dame1      21.077  29.140  37.920  0.00  0.00     0.026 C 
ENDBRANCH  17  21
ENDBRANCH  15  16
ENDBRANCH   1  15
BRANCH   3  23
ATOM     23  C16 non dame1      23.386  27.783  32.522  0.00  0.00     0.047 A 
ATOM     24  C17 non dame1      24.086  26.593  32.786  0.00  0.00     0.032 A 
ATOM     25  C18 non dame1      25.474  26.618  32.972  0.00  0.00     0.026 A 
ATOM     26  C19 non dame1      26.172  27.826  32.894  0.00  0.00     0.034 A 
ATOM     27  C20 non dame1      25.475  29.009  32.626  0.00  0.00     0.026 A 
ATOM     28 Cl1  non dame1      27.913  27.868  33.131  0.00  0.00    -0.084 Cl
ATOM     29  C21 non dame1      24.092  28.995  32.435  0.00  0.00     0.032 A 
ENDBRANCH   3  23
TORSDOF 5
ENDMDL
MODEL 42
REMARK VINA RESULT:      -0.0      3.983      6.952
REMARK NAME 24356822_Intermediate
REMARK  5 active torsions:
REMARK  status: ('A' for Active; 'I' for Inactive)
REMARK    1  A    between atoms: C2_2  and  N1_3 
REMARK    2  A    between atoms: N1_3  and  C3_4 
REMARK       I    between atoms: N1_3  and  C5_6 
REMARK    3  A    between atoms: C5_6  and  C6_7 
REMARK    4  A    between atoms: C6_7  and  N2_8 
REMARK    5  A    between atoms: N3_10  and  C16_21 
ROOT
ATOM      1  N2  non dame1      17.492  24.717  39.819  0.00  0.00    -0.283 N 
ATOM      2  C7  non dame1      18.793  24.321  39.659  0.00  0.00     0.337 A 
ATOM      3  N3  non dame1      19.784  25.243  39.922  0.00  0.00    -0.229 N 
ATOM      4  C8  non dame1      19.607  26.552  40.340  0.00  0.00     0.270 A 
ATOM      5  C9  non dame1      18.222  26.929  40.496  0.00  0.00     0.074 A 
ATOM      6  C10 non dame1      17.607  28.134  40.893  0.00  0.00    -0.026 A 
ATOM      7  C11 non dame1      18.050  29.487  41.310  0.00  0.00     0.041 C 
ATOM      8  C12 non dame1      16.720  30.305  41.240  0.00  0.00     0.010 C 
ATOM      9  C13 non dame1      15.546  29.276  41.315  0.00  0.00     0.047 C 
ATOM     10  C14 non dame1      16.237  28.035  40.900  0.00  0.00    -0.008 A 
ATOM     11  S1  non dame1      15.656  26.528  40.442  0.00  0.00    -0.075 SA
ATOM     12  C15 non dame1      17.250  25.998  40.229  0.00  0.00     0.097 A 
ATOM     13  O1  non dame1      20.557  27.276  40.543  0.00  0.00    -0.266 OA
ATOM     14  O2  non dame1      19.034  23.192  39.296  0.00  0.00    -0.246 OA
ENDROOT
BRANCH   1  15
ATOM     15  C6  non dame1      16.425  23.808  39.562  0.00  0.00     0.237 C 
BRANCH  15  16
ATOM     16  C5  non dame1      16.305  22.847  40.697  0.00  0.00     0.238 C 
ATOM     17  N1  non dame1      16.219  21.503  40.451  0.00  0.00    -0.351 N 
ATOM     18  O3  non dame1      16.280  23.261  41.848  0.00  0.00    -0.272 OA
BRANCH  17  19
ATOM     19  C2  non dame1      16.103  20.579  41.544  0.00  0.00     0.121 C 
ATOM     20  C1  non dame1      14.688  20.049  41.609  0.00  0.00     0.026 C 
ENDBRANCH  17  19
BRANCH  17  21
ATOM     21  C3  non dame1      16.247  21.017  39.100  0.00  0.00     0.121 C 
ATOM     22  C4  non dame1      17.386  20.035  38.940  0.00  0.00     0.026 C 
ENDBRANCH  17  21
ENDBRANCH  15  16
ENDBRANCH   1  15
BRANCH   3  23
ATOM     23  C16 non dame1      21.061  24.746  39.728  0.00  0.00     0.047 A 
ATOM     24  C17 non dame1      21.680  24.858  38.471  0.00  0.00     0.032 A 
ATOM     25  C18 non dame1      22.968  24.346  38.271  0.00  0.00     0.026 A 
ATOM     26  C19 non dame1      23.648  23.723  39.321  0.00  0.00     0.034 A 
ATOM     27  C20 non dame1      23.034  23.618  40.574  0.00  0.00     0.026 A 
ATOM     28 Cl1  non dame1      25.263  23.074  39.078  0.00  0.00    -0.084 Cl
ATOM     29  C21 non dame1      21.751  24.128  40.784  0.00  0.00     0.032 A 
ENDBRANCH   3  23
TORSDOF 5
ENDMDL
MODEL 43
REMARK VINA RESULT:      -0.0      0.000      0.000
REMARK NAME 49681067_Accepted
REMARK  3 active torsions:
REMARK  status: ('A' for Active; 'I' for Inactive)
REMARK    1  A    between atoms: N1_4  and  S1_15 
REMARK       I    between atoms: N2_6  and  C5_7 
REMARK       I    between atoms: C5_7  and  N3_8 
REMARK    2  A    between atoms: S1_15  and  C10_16 
REMARK    3  A    between atoms: C14_20  and  C16_22 
ROOT
ATOM      1  C1  non dame1      19.300  26.372  27.874  0.00  0.00     0.034 C 
ATOM      2  C2  non dame1      17.968  26.997  28.258  0.00  0.00     0.100 A 
ATOM      3  C3  non dame1      16.837  26.116  27.844  0.00  0.00     0.134 A 
ATOM      4  N1  non dame1      16.172  25.741  28.998  0.00  0.00    -0.187 NA
ATOM      5  C4  non dame1      16.834  26.332  30.089  0.00  0.00     0.237 A 
ATOM      6  N2  non dame1      17.861  27.098  29.608  0.00  0.00    -0.315 N 
ATOM      7  C5  non dame1      18.708  27.884  30.324  0.00  0.00     0.322 C 
ATOM      8  N3  non dame1      19.691  28.591  29.686  0.00  0.00    -0.330 N 
ATOM      9  C6  non dame1      20.622  29.447  30.424  0.00  0.00     0.153 C 
ATOM     10  C7  non dame1      22.046  29.045  30.025  0.00  0.00     0.187 C 
ATOM     11  O1  non dame1      22.210  29.094  28.603  0.00  0.00    -0.388 OA
ATOM     12  C8  non dame1      21.327  28.175  27.947  0.00  0.00     0.187 C 
ATOM     13  C9  non dame1      19.862  28.527  28.232  0.00  0.00     0.153 C 
ATOM     14  O2  non dame1      18.592  27.958  31.538  0.00  0.00    -0.247 OA
ENDROOT
BRANCH   4  15
ATOM     15  S1  non dame1      14.606  26.266  28.940  0.00  0.00     0.245 S 
ATOM     16  O3  non dame1      13.653  25.270  29.866  0.00  0.00    -0.206 OA
ATOM     17  O4  non dame1      14.073  26.239  27.367  0.00  0.00    -0.206 OA
BRANCH  15  18
ATOM     18  C10 non dame1      14.515  27.920  29.565  0.00  0.00     0.075 A 
ATOM     19  C11 non dame1      14.123  28.155  30.894  0.00  0.00     0.025 A 
ATOM     20  C12 non dame1      14.041  29.463  31.383  0.00  0.00     0.002 A 
ATOM     21  C13 non dame1      14.353  30.544  30.556  0.00  0.00     0.016 A 
ATOM     22  C14 non dame1      14.750  30.310  29.236  0.00  0.00     0.049 A 
ATOM     23  C15 non dame1      14.838  29.008  28.738  0.00  0.00     0.041 A 
BRANCH  22  24
ATOM     24  C16 non dame1      15.078  31.456  28.366  0.00  0.00     0.417 C 
ATOM     25  F1  non dame1      13.925  32.156  28.072  0.00  0.00    -0.166 F 
ATOM     26  F2  non dame1      15.649  30.996  27.196  0.00  0.00    -0.166 F 
ATOM     27  F3  non dame1      15.968  32.288  29.016  0.00  0.00    -0.166 F 
ENDBRANCH  22  24
ENDBRANCH  15  18
ENDBRANCH   4  15
TORSDOF 3
ENDMDL
MODEL 44
REMARK VINA RESULT:      -0.0      9.167     11.351
REMARK NAME 49681067_Accepted
REMARK  3 active torsions:
REMARK  status: ('A' for Active; 'I' for Inactive)
REMARK    1  A    between atoms: N1_4  and  S1_15 
REMARK       I    between atoms: N2_6  and  C5_7 
REMARK       I    between atoms: C5_7  and  N3_8 
REMARK    2  A    between atoms: S1_15  and  C10_16 
REMARK    3  A    between atoms: C14_20  and  C16_22 
ROOT
ATOM      1  C1  non dame1      17.239  21.507  34.199  0.00  0.00     0.034 C 
ATOM      2  C2  non dame1      18.581  22.098  34.602  0.00  0.00     0.100 A 
ATOM      3  C3  non dame1      19.224  22.777  33.440  0.00  0.00     0.134 A 
ATOM      4  N1  non dame1      19.351  24.115  33.773  0.00  0.00    -0.187 NA
ATOM      5  C4  non dame1      18.817  24.291  35.061  0.00  0.00     0.237 A 
ATOM      6  N2  non dame1      18.412  23.072  35.533  0.00  0.00    -0.315 N 
ATOM      7  C5  non dame1      17.897  22.792  36.759  0.00  0.00     0.322 C 
ATOM      8  N3  non dame1      17.538  21.509  37.075  0.00  0.00    -0.330 N 
ATOM      9  C6  non dame1      16.980  21.171  38.386  0.00  0.00     0.153 C 
ATOM     10  C7  non dame1      15.668  20.413  38.154  0.00  0.00     0.187 C 
ATOM     11  O1  non dame1      15.876  19.284  37.298  0.00  0.00    -0.388 OA
ATOM     12  C8  non dame1      16.345  19.691  36.007  0.00  0.00     0.187 C 
ATOM     13  C9  non dame1      17.694  20.411  36.117  0.00  0.00     0.153 C 
ATOM     14  O2  non dame1      17.755  23.687  37.580  0.00  0.00    -0.247 OA
ENDROOT
BRANCH   4  15
ATOM     15  S1  non dame1      20.947  24.547  33.762  0.00  0.00     0.245 S 
ATOM     16  O3  non dame1      21.078  26.174  33.453  0.00  0.00    -0.206 OA
ATOM     17  O4  non dame1      21.742  23.693  32.581  0.00  0.00    -0.206 OA
BRANCH  15  18
ATOM     18  C10 non dame1      21.666  24.185  35.338  0.00  0.00     0.075 A 
ATOM     19  C11 non dame1      21.805  25.197  36.303  0.00  0.00     0.025 A 
ATOM     20  C12 non dame1      22.385  24.912  37.545  0.00  0.00     0.002 A 
ATOM     21  C13 non dame1      22.823  23.618  37.835  0.00  0.00     0.016 A 
ATOM     22  C14 non dame1      22.679  22.609  36.878  0.00  0.00     0.049 A 
ATOM     23  C15 non dame1      22.100  22.883  35.636  0.00  0.00     0.041 A 
BRANCH  22  24
ATOM     24  C16 non dame1      23.144  21.245  37.190  0.00  0.00     0.417 C 
ATOM     25  F1  non dame1      22.666  20.366  36.239  0.00  0.00    -0.166 F 
ATOM     26  F2  non dame1      22.678  20.874  38.435  0.00  0.00    -0.166 F 
ATOM     27  F3  non dame1      24.525  21.218  37.189  0.00  0.00    -0.166 F 
ENDBRANCH  22  24
ENDBRANCH  15  18
ENDBRANCH   4  15
TORSDOF 3
ENDMDL
MODEL 45
REMARK VINA RESULT:      -0.0      5.267      7.202
REMARK NAME 49681067_Accepted
REMARK  3 active torsions:
REMARK  status: ('A' for Active; 'I' for Inactive)
REMARK    1  A    between atoms: N1_4  and  S1_15 
REMARK       I    between atoms: N2_6  and  C5_7 
REMARK       I    between atoms: C5_7  and  N3_8 
REMARK    2  A    between atoms: S1_15  and  C10_16 
REMARK    3  A    between atoms: C14_20  and  C16_22 
ROOT
ATOM      1  C1  non dame1      15.844  28.732  33.139  0.00  0.00     0.034 C 
ATOM      2  C2  non dame1      15.657  27.231  32.980  0.00  0.00     0.100 A 
ATOM      3  C3  non dame1      16.620  26.489  33.845  0.00  0.00     0.134 A 
ATOM      4  N1  non dame1      15.869  25.756  34.749  0.00  0.00    -0.187 NA
ATOM      5  C4  non dame1      14.511  26.015  34.492  0.00  0.00     0.237 A 
ATOM      6  N2  non dame1      14.427  26.855  33.414  0.00  0.00    -0.315 N 
ATOM      7  C5  non dame1      13.298  27.301  32.804  0.00  0.00     0.322 C 
ATOM      8  N3  non dame1      13.387  28.145  31.730  0.00  0.00    -0.330 N 
ATOM      9  C6  non dame1      12.192  28.647  31.048  0.00  0.00     0.153 C 
ATOM     10  C7  non dame1      12.297  30.175  30.982  0.00  0.00     0.187 C 
ATOM     11  O1  non dame1      13.530  30.576  30.373  0.00  0.00    -0.388 OA
ATOM     12  C8  non dame1      14.656  30.122  31.134  0.00  0.00     0.187 C 
ATOM     13  C9  non dame1      14.683  28.591  31.210  0.00  0.00     0.153 C 
ATOM     14  O2  non dame1      12.202  26.949  33.215  0.00  0.00    -0.247 OA
ENDROOT
BRANCH   4  15
ATOM     15  S1  non dame1      16.181  24.144  34.560  0.00  0.00     0.245 S 
ATOM     16  O3  non dame1      15.888  23.352  35.990  0.00  0.00    -0.206 OA
ATOM     17  O4  non dame1      17.770  23.936  34.126  0.00  0.00    -0.206 OA
BRANCH  15  18
ATOM     18  C10 non dame1      15.132  23.486  33.295  0.00  0.00     0.075 A 
ATOM     19  C11 non dame1      13.948  22.811  33.636  0.00  0.00     0.025 A 
ATOM     20  C12 non dame1      13.126  22.281  32.635  0.00  0.00     0.002 A 
ATOM     21  C13 non dame1      13.474  22.424  31.290  0.00  0.00     0.016 A 
ATOM     22  C14 non dame1      14.649  23.102  30.950  0.00  0.00     0.049 A 
ATOM     23  C15 non dame1      15.476  23.636  31.941  0.00  0.00     0.041 A 
BRANCH  22  24
ATOM     24  C16 non dame1      15.012  23.250  29.528  0.00  0.00     0.417 C 
ATOM     25  F1  non dame1      16.002  24.204  29.402  0.00  0.00    -0.166 F 
ATOM     26  F2  non dame1      13.901  23.640  28.808  0.00  0.00    -0.166 F 
ATOM     27  F3  non dame1      15.474  22.042  29.042  0.00  0.00    -0.166 F 
ENDBRANCH  22  24
ENDBRANCH  15  18
ENDBRANCH   4  15
TORSDOF 3
ENDMDL
MODEL 46
REMARK VINA RESULT:      -0.0      0.000      0.000
REMARK NAME 24328527_Intermediate
REMARK  8 active torsions:
REMARK  status: ('A' for Active; 'I' for Inactive)
REMARK    1  A    between atoms: O1_1  and  N1_2 
REMARK    2  A    between atoms: N1_2  and  C1_3 
REMARK    3  A    between atoms: C5_7  and  O2_9 
REMARK    4  A    between atoms: O2_9  and  C7_10 
REMARK    5  A    between atoms: C7_10  and  C8_11 
REMARK    6  A    between atoms: C12_16  and  S1_17 
REMARK    7  A    between atoms: S1_17  and  C13_18 
REMARK    8  A    between atoms: C13_18  and  C14_19 
ROOT
ATOM      1  C8  non dame1      15.030  22.430  36.675  0.00  0.00     0.075 A 
ATOM      2  C9  non dame1      14.947  21.363  35.786  0.00  0.00     0.022 A 
ATOM      3  C10 non dame1      15.792  20.263  35.981  0.00  0.00     0.020 A 
ATOM      4  C11 non dame1      16.706  20.274  37.033  0.00  0.00     0.118 A 
ATOM      5  N2  non dame1      16.798  21.309  37.883  0.00  0.00    -0.253 NA
ATOM      6  C12 non dame1      15.968  22.358  37.696  0.00  0.00     0.109 A 
ENDROOT
BRANCH   1   7
ATOM      7  C7  non dame1      14.158  23.591  36.538  0.00  0.00     0.301 C 
ATOM      8  O3  non dame1      13.387  23.884  37.440  0.00  0.00    -0.259 OA
BRANCH   7   9
ATOM      9  O2  non dame1      14.204  24.344  35.414  0.00  0.00    -0.275 OA
BRANCH   9  10
ATOM     10  C5  non dame1      15.147  25.321  35.556  0.00  0.00     0.082 A 
ATOM     11  C4  non dame1      14.813  26.506  36.221  0.00  0.00     0.037 A 
ATOM     12  C3  non dame1      15.774  27.508  36.368  0.00  0.00     0.006 A 
ATOM     13  C2  non dame1      17.064  27.328  35.855  0.00  0.00     0.050 A 
ATOM     14  C1  non dame1      17.386  26.137  35.200  0.00  0.00     0.233 A 
ATOM     15  C6  non dame1      16.430  25.132  35.040  0.00  0.00     0.087 A 
BRANCH  14  16
ATOM     16  N1  non dame1      18.719  25.952  34.686  0.00  0.00     0.180 N 
ATOM     17  O4  non dame1      18.658  25.723  33.255  0.00  0.00    -0.032 OA
ATOM     18  H2  non dame1      19.141  25.156  35.141  0.00  0.00     0.411 HD
BRANCH  16  19
ATOM     19  O1  non dame1      19.508  27.138  34.951  0.00  0.00    -0.155 OA
ATOM     20  H1  non dame1      19.300  27.813  34.301  0.00  0.00     0.261 HD
ENDBRANCH  16  19
ENDBRANCH  14  16
ENDBRANCH   9  10
ENDBRANCH   7   9
ENDBRANCH   1   7
BRANCH   6  21
ATOM     21  S1  non dame1      16.056  23.727  38.791  0.00  0.00    -0.105 SA
BRANCH  21  22
ATOM     22  C13 non dame1      17.852  23.967  38.603  0.00  0.00     0.120 C 
BRANCH  22  23
ATOM     23  C14 non dame1      18.186  25.399  38.813  0.00  0.00    -0.043 A 
ATOM     24  C15 non dame1      17.275  26.253  39.456  0.00  0.00     0.008 A 
ATOM     25  C16 non dame1      17.585  27.606  39.642  0.00  0.00     0.001 A 
ATOM     26  C17 non dame1      18.805  28.115  39.193  0.00  0.00     0.001 A 
ATOM     27  C18 non dame1      19.715  27.262  38.559  0.00  0.00     0.007 A 
ATOM     28  C19 non dame1      19.416  25.913  38.369  0.00  0.00    -0.055 A 
ATOM     29  C20 non dame1      20.379  25.012  37.704  0.00  0.00     0.049 C 
ENDBRANCH  22  23
ENDBRANCH  21  22
ENDBRANCH   6  21
TORSDOF 8
ENDMDL
MODEL 47
REMARK VINA RESULT:      -0.0      6.999      9.464
REMARK NAME 24328527_Intermediate
REMARK  8 active torsions:
REMARK  status: ('A' for Active; 'I' for Inactive)
REMARK    1  A    between atoms: O1_1  and  N1_2 
REMARK    2  A    between atoms: N1_2  and  C1_3 
REMARK    3  A    between atoms: C5_7  and  O2_9 
REMARK    4  A    between atoms: O2_9  and  C7_10 
REMARK    5  A    between atoms: C7_10  and  C8_11 
REMARK    6  A    between atoms: C12_16  and  S1_17 
REMARK    7  A    between atoms: S1_17  and  C13_18 
REMARK    8  A    between atoms: C13_18  and  C14_19 
ROOT
ATOM      1  C8  non dame1      23.366  23.009  33.797  0.00  0.00     0.075 A 
ATOM      2  C9  non dame1      24.423  23.161  34.689  0.00  0.00     0.022 A 
ATOM      3  C10 non dame1      24.384  24.226  35.598  0.00  0.00     0.020 A 
ATOM      4  C11 non dame1      23.311  25.115  35.573  0.00  0.00     0.118 A 
ATOM      5  N2  non dame1      22.297  24.979  34.703  0.00  0.00    -0.253 NA
ATOM      6  C12 non dame1      22.337  23.941  33.841  0.00  0.00     0.109 A 
ENDROOT
BRANCH   1   7
ATOM      7  C7  non dame1      23.339  21.906  32.845  0.00  0.00     0.301 C 
ATOM      8  O3  non dame1      22.431  21.089  32.884  0.00  0.00    -0.259 OA
BRANCH   7   9
ATOM      9  O2  non dame1      24.319  21.786  31.918  0.00  0.00    -0.275 OA
BRANCH   9  10
ATOM     10  C5  non dame1      23.981  22.495  30.802  0.00  0.00     0.082 A 
ATOM     11  C4  non dame1      23.142  21.909  29.847  0.00  0.00     0.037 A 
ATOM     12  C3  non dame1      22.794  22.630  28.702  0.00  0.00     0.006 A 
ATOM     13  C2  non dame1      23.279  23.929  28.512  0.00  0.00     0.050 A 
ATOM     14  C1  non dame1      24.110  24.503  29.477  0.00  0.00     0.233 A 
ATOM     15  C6  non dame1      24.471  23.789  30.621  0.00  0.00     0.087 A 
BRANCH  14  16
ATOM     16  N1  non dame1      24.596  25.845  29.282  0.00  0.00     0.180 N 
ATOM     17  O4  non dame1      26.047  25.837  29.271  0.00  0.00    -0.032 OA
ATOM     18  H2  non dame1      24.264  26.429  30.036  0.00  0.00     0.411 HD
BRANCH  16  19
ATOM     19  O1  non dame1      24.107  26.357  28.018  0.00  0.00    -0.155 OA
ATOM     20  H1  non dame1      23.790  25.629  27.478  0.00  0.00     0.261 HD
ENDBRANCH  16  19
ENDBRANCH  14  16
ENDBRANCH   9  10
ENDBRANCH   7   9
ENDBRANCH   1   7
BRANCH   6  21
ATOM     21  S1  non dame1      21.026  23.727  32.693  0.00  0.00    -0.105 SA
BRANCH  21  22
ATOM     22  C13 non dame1      21.102  25.428  32.046  0.00  0.00     0.120 C 
BRANCH  22  23
ATOM     23  C14 non dame1      20.644  25.441  30.632  0.00  0.00    -0.043 A 
ATOM     24  C15 non dame1      19.903  24.365  30.116  0.00  0.00     0.008 A 
ATOM     25  C16 non dame1      19.483  24.373  28.781  0.00  0.00     0.001 A 
ATOM     26  C17 non dame1      19.794  25.454  27.953  0.00  0.00     0.001 A 
ATOM     27  C18 non dame1      20.525  26.529  28.469  0.00  0.00     0.007 A 
ATOM     28  C19 non dame1      20.948  26.531  29.799  0.00  0.00    -0.055 A 
ATOM     29  C20 non dame1      21.716  27.668  30.345  0.00  0.00     0.049 C 
ENDBRANCH  22  23
ENDBRANCH  21  22
ENDBRANCH   6  21
TORSDOF 8
ENDMDL
MODEL 48
REMARK VINA RESULT:      -0.0      5.748      7.632
REMARK NAME 24328527_Intermediate
REMARK  8 active torsions:
REMARK  status: ('A' for Active; 'I' for Inactive)
REMARK    1  A    between atoms: O1_1  and  N1_2 
REMARK    2  A    between atoms: N1_2  and  C1_3 
REMARK    3  A    between atoms: C5_7  and  O2_9 
REMARK    4  A    between atoms: O2_9  and  C7_10 
REMARK    5  A    between atoms: C7_10  and  C8_11 
REMARK    6  A    between atoms: C12_16  and  S1_17 
REMARK    7  A    between atoms: S1_17  and  C13_18 
REMARK    8  A    between atoms: C13_18  and  C14_19 
ROOT
ATOM      1  C8  non dame1      24.433  24.997  38.752  0.00  0.00     0.075 A 
ATOM      2  C9  non dame1      25.451  24.694  37.854  0.00  0.00     0.022 A 
ATOM      3  C10 non dame1      26.750  25.132  38.142  0.00  0.00     0.020 A 
ATOM      4  C11 non dame1      26.986  25.877  39.297  0.00  0.00     0.118 A 
ATOM      5  N2  non dame1      26.002  26.182  40.157  0.00  0.00    -0.253 NA
ATOM      6  C12 non dame1      24.756  25.742  39.878  0.00  0.00     0.109 A 
ENDROOT
BRANCH   1   7
ATOM      7  C7  non dame1      23.066  24.546  38.519  0.00  0.00     0.301 C 
ATOM      8  O3  non dame1      22.523  23.803  39.323  0.00  0.00    -0.259 OA
BRANCH   7   9
ATOM      9  O2  non dame1      22.399  24.949  37.411  0.00  0.00    -0.275 OA
BRANCH   9  10
ATOM     10  C5  non dame1      21.752  26.123  37.671  0.00  0.00     0.082 A 
ATOM     11  C4  non dame1      20.502  26.093  38.297  0.00  0.00     0.037 A 
ATOM     12  C3  non dame1      19.835  27.292  38.563  0.00  0.00     0.006 A 
ATOM     13  C2  non dame1      20.416  28.514  38.207  0.00  0.00     0.050 A 
ATOM     14  C1  non dame1      21.668  28.529  37.588  0.00  0.00     0.233 A 
ATOM     15  C6  non dame1      22.339  27.337  37.310  0.00  0.00     0.087 A 
BRANCH  14  16
ATOM     16  N1  non dame1      22.266  29.792  37.236  0.00  0.00     0.180 N 
ATOM     17  O4  non dame1      22.508  29.830  35.806  0.00  0.00    -0.032 OA
ATOM     18  H2  non dame1      23.139  29.894  37.732  0.00  0.00     0.411 HD
BRANCH  16  19
ATOM     19  O1  non dame1      21.370  30.870  37.602  0.00  0.00    -0.155 OA
ATOM     20  H1  non dame1      21.147  31.381  36.820  0.00  0.00     0.261 HD
ENDBRANCH  16  19
ENDBRANCH  14  16
ENDBRANCH   9  10
ENDBRANCH   7   9
ENDBRANCH   1   7
BRANCH   6  21
ATOM     21  S1  non dame1      23.446  26.117  40.984  0.00  0.00    -0.105 SA
BRANCH  21  22
ATOM     22  C13 non dame1      23.767  27.910  41.010  0.00  0.00     0.120 C 
BRANCH  22  23
ATOM     23  C14 non dame1      22.498  28.638  41.268  0.00  0.00    -0.043 A 
ATOM     24  C15 non dame1      21.389  27.962  41.802  0.00  0.00     0.008 A 
ATOM     25  C16 non dame1      20.189  28.646  42.033  0.00  0.00     0.001 A 
ATOM     26  C17 non dame1      20.089  30.007  41.738  0.00  0.00     0.001 A 
ATOM     27  C18 non dame1      21.196  30.681  41.213  0.00  0.00     0.007 A 
ATOM     28  C19 non dame1      22.396  30.009  40.979  0.00  0.00    -0.055 A 
ATOM     29  C20 non dame1      23.566  30.722  40.430  0.00  0.00     0.049 C 
ENDBRANCH  22  23
ENDBRANCH  21  22
ENDBRANCH   6  21
TORSDOF 8
ENDMDL
MODEL 49
REMARK VINA RESULT:       0.0      0.000      0.000
REMARK NAME 92764569_Accepted
REMARK  4 active torsions:
REMARK  status: ('A' for Active; 'I' for Inactive)
REMARK    1  A    between atoms: C7_12  and  C8_13 
REMARK    2  A    between atoms: C8_13  and  S1_14 
REMARK    3  A    between atoms: S1_14  and  C9_15 
REMARK    4  A    between atoms: C9_15  and  C10_16 
ROOT
ATOM      1  C1  non dame1      13.775  21.965  31.385  0.00  0.00     0.163 C 
ATOM      2  N1  non dame1      13.313  21.796  32.723  0.00  0.00    -0.287 N 
ATOM      3  C2  non dame1      13.305  22.874  33.575  0.00  0.00     0.147 A 
ATOM      4  C3  non dame1      12.871  22.776  34.866  0.00  0.00     0.171 A 
ATOM      5  C4  non dame1      12.397  21.555  35.423  0.00  0.00     0.283 A 
ATOM      6  N2  non dame1      12.460  20.482  34.530  0.00  0.00    -0.269 N 
ATOM      7  C5  non dame1      12.067  19.228  35.084  0.00  0.00     0.164 C 
ATOM      8  C6  non dame1      12.868  20.558  33.183  0.00  0.00     0.332 A 
ATOM      9  O1  non dame1      12.824  19.577  32.474  0.00  0.00    -0.246 OA
ATOM     10  O2  non dame1      11.987  21.495  36.562  0.00  0.00    -0.265 OA
ATOM     11  N3  non dame1      13.006  24.039  35.377  0.00  0.00    -0.225 NA
ATOM     12  C7  non dame1      13.524  24.821  34.372  0.00  0.00     0.116 A 
ATOM     13  N4  non dame1      13.709  24.134  33.264  0.00  0.00    -0.328 N 
ATOM     14  H16 non dame1      14.072  24.487  32.390  0.00  0.00     0.169 HD
ENDROOT
BRANCH  12  15
ATOM     15  C8  non dame1      13.870  26.234  34.394  0.00  0.00     0.152 C 
BRANCH  15  16
ATOM     16  S1  non dame1      15.608  26.442  33.885  0.00  0.00    -0.157 SA
BRANCH  16  17
ATOM     17  C9  non dame1      16.304  25.644  35.368  0.00  0.00     0.112 C 
BRANCH  17  18
ATOM     18  C10 non dame1      17.167  24.505  34.958  0.00  0.00    -0.049 A 
ATOM     19  C11 non dame1      18.404  24.742  34.333  0.00  0.00     0.008 A 
ATOM     20  C12 non dame1      19.211  23.669  33.938  0.00  0.00     0.001 A 
ATOM     21  C13 non dame1      18.796  22.355  34.167  0.00  0.00     0.000 A 
ATOM     22  C14 non dame1      17.568  22.119  34.796  0.00  0.00     0.001 A 
ATOM     23  C15 non dame1      16.757  23.183  35.195  0.00  0.00     0.008 A 
ENDBRANCH  17  18
ENDBRANCH  16  17
ENDBRANCH  15  16
ENDBRANCH  12  15
TORSDOF 4
ENDMDL
MODEL 50
REMARK VINA RESULT:       0.0      6.415      8.520
REMARK NAME 92764569_Accepted
REMARK  4 active torsions:
REMARK  status: ('A' for Active; 'I' for Inactive)
REMARK    1  A    between atoms: C7_12  and  C8_13 
REMARK    2  A    between atoms: C8_13  and  S1_14 
REMARK    3  A    between atoms: S1_14  and  C9_15 
REMARK    4  A    between atoms: C9_15  and  C10_16 
ROOT
ATOM      1  C1  non dame1      16.915  28.187  35.805  0.00  0.00     0.163 C 
ATOM      2  N1  non dame1      16.081  29.123  36.482  0.00  0.00    -0.287 N 
ATOM      3  C2  non dame1      16.209  29.280  37.842  0.00  0.00     0.147 A 
ATOM      4  C3  non dame1      15.443  30.163  38.546  0.00  0.00     0.171 A 
ATOM      5  C4  non dame1      14.456  30.983  37.927  0.00  0.00     0.283 A 
ATOM      6  N2  non dame1      14.339  30.759  36.553  0.00  0.00    -0.269 N 
ATOM      7  C5  non dame1      13.304  31.507  35.919  0.00  0.00     0.164 C 
ATOM      8  C6  non dame1      15.139  29.883  35.793  0.00  0.00     0.332 A 
ATOM      9  O1  non dame1      14.996  29.811  34.592  0.00  0.00    -0.246 OA
ATOM     10  O2  non dame1      13.806  31.783  38.565  0.00  0.00    -0.265 OA
ATOM     11  N3  non dame1      15.866  30.038  39.842  0.00  0.00    -0.225 NA
ATOM     12  C7  non dame1      16.852  29.080  39.847  0.00  0.00     0.116 A 
ATOM     13  N4  non dame1      17.082  28.609  38.639  0.00  0.00    -0.328 N 
ATOM     14  H16 non dame1      17.761  27.905  38.386  0.00  0.00     0.169 HD
ENDROOT
BRANCH  12  15
ATOM     15  C8  non dame1      17.622  28.560  40.967  0.00  0.00     0.152 C 
BRANCH  15  16
ATOM     16  S1  non dame1      17.456  26.746  41.028  0.00  0.00    -0.157 SA
BRANCH  16  17
ATOM     17  C9  non dame1      15.693  26.763  41.486  0.00  0.00     0.112 C 
BRANCH  17  18
ATOM     18  C10 non dame1      14.914  25.989  40.484  0.00  0.00    -0.049 A 
ATOM     19  C11 non dame1      15.029  24.590  40.423  0.00  0.00     0.008 A 
ATOM     20  C12 non dame1      14.304  23.862  39.472  0.00  0.00     0.001 A 
ATOM     21  C13 non dame1      13.455  24.522  38.580  0.00  0.00     0.000 A 
ATOM     22  C14 non dame1      13.335  25.915  38.645  0.00  0.00     0.001 A 
ATOM     23  C15 non dame1      14.054  26.649  39.591  0.00  0.00     0.008 A 
ENDBRANCH  17  18
ENDBRANCH  16  17
ENDBRANCH  15  16
ENDBRANCH  12  15
TORSDOF 4
ENDMDL
MODEL 51
REMARK VINA RESULT:       0.0      8.183      9.936
REMARK NAME 92764569_Accepted
REMARK  4 active torsions:
REMARK  status: ('A' for Active; 'I' for Inactive)
REMARK    1  A    between atoms: C7_12  and  C8_13 
REMARK    2  A    between atoms: C8_13  and  S1_14 
REMARK    3  A    between atoms: S1_14  and  C9_15 
REMARK    4  A    between atoms: C9_15  and  C10_16 
ROOT
ATOM      1  C1  non dame1      21.326  27.315  35.690  0.00  0.00     0.163 C 
ATOM      2  N1  non dame1      20.695  28.135  34.710  0.00  0.00    -0.287 N 
ATOM      3  C2  non dame1      20.519  27.649  33.436  0.00  0.00     0.147 A 
ATOM      4  C3  non dame1      19.918  28.384  32.456  0.00  0.00     0.171 A 
ATOM      5  C4  non dame1      19.432  29.704  32.677  0.00  0.00     0.283 A 
ATOM      6  N2  non dame1      19.668  30.166  33.975  0.00  0.00    -0.269 N 
ATOM      7  C5  non dame1      19.264  31.513  34.205  0.00  0.00     0.164 C 
ATOM      8  C6  non dame1      20.251  29.419  35.018  0.00  0.00     0.332 A 
ATOM      9  O1  non dame1      20.352  29.895  36.128  0.00  0.00    -0.246 OA
ATOM     10  O2  non dame1      18.874  30.329  31.802  0.00  0.00    -0.265 OA
ATOM     11  N3  non dame1      19.921  27.569  31.355  0.00  0.00    -0.225 NA
ATOM     12  C7  non dame1      20.533  26.396  31.731  0.00  0.00     0.116 A 
ATOM     13  N4  non dame1      20.900  26.421  32.996  0.00  0.00    -0.328 N 
ATOM     14  H16 non dame1      21.361  25.679  33.504  0.00  0.00     0.169 HD
ENDROOT
BRANCH  12  15
ATOM     15  C8  non dame1      20.804  25.207  30.940  0.00  0.00     0.152 C 
BRANCH  15  16
ATOM     16  S1  non dame1      22.583  24.818  31.017  0.00  0.00    -0.157 SA
BRANCH  16  17
ATOM     17  C9  non dame1      23.108  26.284  30.072  0.00  0.00     0.112 C 
BRANCH  17  18
ATOM     18  C10 non dame1      24.073  27.075  30.881  0.00  0.00    -0.049 A 
ATOM     19  C11 non dame1      25.370  26.587  31.114  0.00  0.00     0.008 A 
ATOM     20  C12 non dame1      26.275  27.327  31.884  0.00  0.00     0.001 A 
ATOM     21  C13 non dame1      25.896  28.559  32.422  0.00  0.00     0.000 A 
ATOM     22  C14 non dame1      24.607  29.049  32.185  0.00  0.00     0.001 A 
ATOM     23  C15 non dame1      23.698  28.318  31.416  0.00  0.00     0.008 A 
ENDBRANCH  17  18
ENDBRANCH  16  17
ENDBRANCH  15  16
ENDBRANCH  12  15
TORSDOF 4
ENDMDL
MODEL 52
REMARK VINA RESULT:      -0.0      0.000      0.000
REMARK NAME 17506657_Intermediate
REMARK  5 active torsions:
REMARK  status: ('A' for Active; 'I' for Inactive)
REMARK    1  A    between atoms: C4_4  and  N2_15 
REMARK    2  A    between atoms: C5_5  and  N1_7 
REMARK    3  A    between atoms: N1_7  and  C8_9 
REMARK    4  A    between atoms: N2_15  and  S1_16 
REMARK    5  A    between atoms: S1_16  and  C14_17 
ROOT
ATOM      1  C1  non dame1      20.217  27.568  34.535  0.00  0.00     0.002 C 
ATOM      2  C2  non dame1      21.344  28.163  33.680  0.00  0.00     0.002 C 
ATOM      3  C3  non dame1      20.923  29.486  33.046  0.00  0.00     0.028 C 
ATOM      4  C4  non dame1      19.628  29.344  32.240  0.00  0.00     0.116 C 
ATOM      5  C5  non dame1      18.505  28.755  33.100  0.00  0.00     0.107 C 
ATOM      6  C6  non dame1      18.914  27.428  33.736  0.00  0.00     0.027 C 
ENDROOT
BRANCH   4   7
ATOM      7  N2  non dame1      19.222  30.652  31.762  0.00  0.00    -0.309 N 
ATOM      8  H19 non dame1      18.980  31.378  32.421  0.00  0.00     0.172 HD
BRANCH   7   9
ATOM      9  S1  non dame1      19.249  30.667  30.110  0.00  0.00     0.259 S 
ATOM     10  O1  non dame1      20.255  31.880  29.583  0.00  0.00    -0.201 OA
ATOM     11  O2  non dame1      19.807  29.206  29.553  0.00  0.00    -0.201 OA
BRANCH   9  12
ATOM     12  C14 non dame1      17.623  30.946  29.500  0.00  0.00     0.079 A 
ATOM     13  C15 non dame1      16.910  32.064  29.938  0.00  0.00     0.027 A 
ATOM     14  C16 non dame1      15.612  32.286  29.466  0.00  0.00     0.025 A 
ATOM     15  C17 non dame1      15.032  31.396  28.556  0.00  0.00     0.034 A 
ATOM     16  C18 non dame1      15.761  30.285  28.121  0.00  0.00     0.025 A 
ATOM     17 Cl1  non dame1      13.402  31.667  27.961  0.00  0.00    -0.084 Cl
ATOM     18  C19 non dame1      17.056  30.055  28.586  0.00  0.00     0.027 A 
ENDBRANCH   9  12
ENDBRANCH   7   9
ENDBRANCH   4   7
BRANCH   5  19
ATOM     19  N1  non dame1      17.332  28.534  32.250  0.00  0.00    -0.378 N 
ATOM     20  C7  non dame1      17.344  27.476  31.257  0.00  0.00     0.150 C 
BRANCH  19  21
ATOM     21  C8  non dame1      16.157  29.373  32.402  0.00  0.00     0.030 A 
ATOM     22  C9  non dame1      15.005  29.126  31.635  0.00  0.00     0.029 A 
ATOM     23  C10 non dame1      13.879  29.943  31.772  0.00  0.00     0.002 A 
ATOM     24  C11 non dame1      13.888  31.009  32.675  0.00  0.00     0.000 A 
ATOM     25  C12 non dame1      15.033  31.251  33.442  0.00  0.00     0.002 A 
ATOM     26  C13 non dame1      16.162  30.440  33.313  0.00  0.00     0.029 A 
ENDBRANCH  19  21
ENDBRANCH   5  19
TORSDOF 5
ENDMDL
MODEL 53
REMARK VINA RESULT:      -0.0      2.953      5.066
REMARK NAME 17506657_Intermediate
REMARK  5 active torsions:
REMARK  status: ('A' for Active; 'I' for Inactive)
REMARK    1  A    between atoms: C4_4  and  N2_15 
REMARK    2  A    between atoms: C5_5  and  N1_7 
REMARK    3  A    between atoms: N1_7  and  C8_9 
REMARK    4  A    between atoms: N2_15  and  S1_16 
REMARK    5  A    between atoms: S1_16  and  C14_17 
ROOT
ATOM      1  C1  non dame1      11.904  30.229  33.673  0.00  0.00     0.002 C 
ATOM      2  C2  non dame1      12.855  29.899  34.832  0.00  0.00     0.002 C 
ATOM      3  C3  non dame1      14.283  30.342  34.523  0.00  0.00     0.028 C 
ATOM      4  C4  non dame1      14.788  29.755  33.202  0.00  0.00     0.116 C 
ATOM      5  C5  non dame1      13.838  30.092  32.049  0.00  0.00     0.107 C 
ATOM      6  C6  non dame1      12.408  29.648  32.345  0.00  0.00     0.027 C 
ENDROOT
BRANCH   4   7
ATOM      7  N2  non dame1      16.099  30.303  32.911  0.00  0.00    -0.309 N 
ATOM      8  H19 non dame1      16.209  31.295  32.754  0.00  0.00     0.172 HD
BRANCH   7   9
ATOM      9  S1  non dame1      17.216  29.086  32.900  0.00  0.00     0.259 S 
ATOM     10  O1  non dame1      18.412  29.419  34.004  0.00  0.00    -0.201 OA
ATOM     11  O2  non dame1      16.477  27.654  33.302  0.00  0.00    -0.201 OA
BRANCH   9  12
ATOM     12  C14 non dame1      17.921  28.951  31.293  0.00  0.00     0.079 A 
ATOM     13  C15 non dame1      18.495  30.078  30.701  0.00  0.00     0.027 A 
ATOM     14  C16 non dame1      19.046  29.982  29.419  0.00  0.00     0.025 A 
ATOM     15  C17 non dame1      19.028  28.762  28.735  0.00  0.00     0.034 A 
ATOM     16  C18 non dame1      18.457  27.640  29.344  0.00  0.00     0.025 A 
ATOM     17 Cl1  non dame1      19.717  28.633  27.125  0.00  0.00    -0.084 Cl
ATOM     18  C19 non dame1      17.904  27.726  30.622  0.00  0.00     0.027 A 
ENDBRANCH   9  12
ENDBRANCH   7   9
ENDBRANCH   4   7
BRANCH   5  19
ATOM     19  N1  non dame1      14.308  29.409  30.840  0.00  0.00    -0.378 N 
ATOM     20  C7  non dame1      14.190  27.968  30.729  0.00  0.00     0.150 C 
BRANCH  19  21
ATOM     21  C8  non dame1      14.891  30.175  29.754  0.00  0.00     0.030 A 
ATOM     22  C9  non dame1      15.285  29.536  28.566  0.00  0.00     0.029 A 
ATOM     23  C10 non dame1      15.858  30.272  27.526  0.00  0.00     0.002 A 
ATOM     24  C11 non dame1      16.044  31.651  27.657  0.00  0.00     0.000 A 
ATOM     25  C12 non dame1      15.648  32.288  28.839  0.00  0.00     0.002 A 
ATOM     26  C13 non dame1      15.072  31.562  29.882  0.00  0.00     0.029 A 
ENDBRANCH  19  21
ENDBRANCH   5  19
TORSDOF 5
ENDMDL
MODEL 54
REMARK VINA RESULT:       0.0      7.884      9.589
REMARK NAME 17506657_Intermediate
REMARK  5 active torsions:
REMARK  status: ('A' for Active; 'I' for Inactive)
REMARK    1  A    between atoms: C4_4  and  N2_15 
REMARK    2  A    between atoms: C5_5  and  N1_7 
REMARK    3  A    between atoms: N1_7  and  C8_9 
REMARK    4  A    between atoms: N2_15  and  S1_16 
REMARK    5  A    between atoms: S1_16  and  C14_17 
ROOT
ATOM      1  C1  non dame1      19.458  30.124  42.614  0.00  0.00     0.002 C 
ATOM      2  C2  non dame1      20.337  30.467  41.403  0.00  0.00     0.002 C 
ATOM      3  C3  non dame1      19.646  30.099  40.092  0.00  0.00     0.028 C 
ATOM      4  C4  non dame1      19.215  28.629  40.070  0.00  0.00     0.116 C 
ATOM      5  C5  non dame1      18.334  28.295  41.278  0.00  0.00     0.107 C 
ATOM      6  C6  non dame1      19.017  28.655  42.595  0.00  0.00     0.027 C 
ENDROOT
BRANCH   4   7
ATOM      7  N2  non dame1      18.467  28.374  38.853  0.00  0.00    -0.309 N 
ATOM      8  H19 non dame1      17.593  28.851  38.688  0.00  0.00     0.172 HD
BRANCH   7   9
ATOM      9  S1  non dame1      19.278  27.270  37.930  0.00  0.00     0.259 S 
ATOM     10  O1  non dame1      19.584  27.917  36.431  0.00  0.00    -0.201 OA
ATOM     11  O2  non dame1      20.714  26.880  38.668  0.00  0.00    -0.201 OA
BRANCH   9  12
ATOM     12  C14 non dame1      18.297  25.819  37.754  0.00  0.00     0.079 A 
ATOM     13  C15 non dame1      16.995  25.929  37.262  0.00  0.00     0.027 A 
ATOM     14  C16 non dame1      16.205  24.783  37.131  0.00  0.00     0.025 A 
ATOM     15  C17 non dame1      16.718  23.531  37.486  0.00  0.00     0.034 A 
ATOM     16  C18 non dame1      18.026  23.435  37.971  0.00  0.00     0.025 A 
ATOM     17 Cl1  non dame1      15.732  22.086  37.326  0.00  0.00    -0.084 Cl
ATOM     18  C19 non dame1      18.822  24.573  38.105  0.00  0.00     0.027 A 
ENDBRANCH   9  12
ENDBRANCH   7   9
ENDBRANCH   4   7
BRANCH   5  19
ATOM     19  N1  non dame1      18.051  26.857  41.266  0.00  0.00    -0.378 N 
ATOM     20  C7  non dame1      19.104  25.907  41.569  0.00  0.00     0.150 C 
BRANCH  19  21
ATOM     21  C8  non dame1      16.715  26.383  40.951  0.00  0.00     0.030 A 
ATOM     22  C9  non dame1      16.419  25.009  41.002  0.00  0.00     0.029 A 
ATOM     23  C10 non dame1      15.137  24.553  40.687  0.00  0.00     0.002 A 
ATOM     24  C11 non dame1      14.137  25.457  40.321  0.00  0.00     0.000 A 
ATOM     25  C12 non dame1      14.431  26.825  40.274  0.00  0.00     0.002 A 
ATOM     26  C13 non dame1      15.708  27.291  40.590  0.00  0.00     0.029 A 
ENDBRANCH  19  21
ENDBRANCH   5  19
TORSDOF 5
ENDMDL
MODEL 55
REMARK VINA RESULT:      -0.0      0.000      0.000
REMARK NAME 24312258_Intermediate
REMARK  6 active torsions:
REMARK  status: ('A' for Active; 'I' for Inactive)
REMARK    1  A    between atoms: O1_2  and  P1_3 
REMARK    2  A    between atoms: P1_3  and  C2_4 
REMARK    3  A    between atoms: P1_3  and  O3_24 
REMARK    4  A    between atoms: C2_4  and  C3_5 
REMARK    5  A    between atoms: C2_4  and  N1_12 
REMARK    6  A    between atoms: N1_12  and  C9_13 
ROOT
ATOM      1  C2  non dame1      15.956  24.218  35.216  0.00  0.00     0.234 C 
ENDROOT
BRANCH   1   2
ATOM      2  P1  non dame1      15.909  23.822  37.043  0.00  0.00     0.354 P 
ATOM      3  O2  non dame1      16.583  22.494  37.288  0.00  0.00    -0.256 OA
BRANCH   2   4
ATOM      4  O1  non dame1      16.690  24.988  37.872  0.00  0.00    -0.317 OA
ATOM      5  C1  non dame1      18.064  24.652  37.983  0.00  0.00     0.212 C 
ENDBRANCH   2   4
BRANCH   2   6
ATOM      6  O3  non dame1      14.360  23.746  37.542  0.00  0.00    -0.317 OA
ATOM      7  C19 non dame1      14.156  24.667  38.602  0.00  0.00     0.212 C 
ENDBRANCH   2   6
ENDBRANCH   1   2
BRANCH   1   8
ATOM      8  C3  non dame1      15.956  25.691  35.028  0.00  0.00    -0.024 A 
ATOM      9  C4  non dame1      14.815  26.447  35.348  0.00  0.00     0.011 A 
ATOM     10  C5  non dame1      14.813  27.833  35.159  0.00  0.00     0.019 A 
ATOM     11  C6  non dame1      15.945  28.478  34.655  0.00  0.00     0.011 A 
ATOM     12  C7  non dame1      17.083  27.726  34.342  0.00  0.00     0.019 A 
ATOM     13 Br1  non dame1      15.949  30.387  34.389  0.00  0.00    -0.051 Br
ATOM     14  C8  non dame1      17.097  26.343  34.528  0.00  0.00     0.011 A 
ENDBRANCH   1   8
BRANCH   1  15
ATOM     15  N1  non dame1      14.783  23.645  34.565  0.00  0.00    -0.370 N 
ATOM     16  H9  non dame1      13.995  23.328  35.111  0.00  0.00     0.161 HD
BRANCH  15  17
ATOM     17  C9  non dame1      14.742  23.528  33.129  0.00  0.00     0.040 A 
ATOM     18  C10 non dame1      15.798  22.885  32.475  0.00  0.00     0.030 A 
ATOM     19  C11 non dame1      15.763  22.741  31.091  0.00  0.00     0.003 A 
ATOM     20  C12 non dame1      14.689  23.262  30.363  0.00  0.00     0.012 A 
ATOM     21  C13 non dame1      13.633  23.925  31.006  0.00  0.00    -0.024 A 
ATOM     22  C14 non dame1      12.550  24.458  30.287  0.00  0.00     0.012 A 
ATOM     23  C18 non dame1      13.656  24.056  32.412  0.00  0.00     0.001 A 
ATOM     24  C15 non dame1      11.506  25.108  30.947  0.00  0.00     0.001 A 
ATOM     25  C16 non dame1      11.529  25.231  32.334  0.00  0.00     0.001 A 
ATOM     26  C17 non dame1      12.596  24.707  33.063  0.00  0.00     0.014 A 
ENDBRANCH  15  17
ENDBRANCH   1  15
TORSDOF 6
ENDMDL
MODEL 56
REMARK VINA RESULT:      -0.0      9.867     11.383
REMARK NAME 24312258_Intermediate
REMARK  6 active torsions:
REMARK  status: ('A' for Active; 'I' for Inactive)
REMARK    1  A    between atoms: O1_2  and  P1_3 
REMARK    2  A    between atoms: P1_3  and  C2_4 
REMARK    3  A    between atoms: P1_3  and  O3_24 
REMARK    4  A    between atoms: C2_4  and  C3_5 
REMARK    5  A    between atoms: C2_4  and  N1_12 
REMARK    6  A    between atoms: N1_12  and  C9_13 
ROOT
ATOM      1  C2  non dame1      26.716  27.484  32.948  0.00  0.00     0.234 C 
ENDROOT
BRANCH   1   2
ATOM      2  P1  non dame1      26.795  28.234  34.659  0.00  0.00     0.354 P 
ATOM      3  O2  non dame1      27.608  27.340  35.563  0.00  0.00    -0.256 OA
BRANCH   2   4
ATOM      4  O1  non dame1      27.494  29.704  34.576  0.00  0.00    -0.317 OA
ATOM      5  C1  non dame1      28.898  29.570  34.729  0.00  0.00     0.212 C 
ENDBRANCH   2   4
BRANCH   2   6
ATOM      6  O3  non dame1      25.286  28.383  35.256  0.00  0.00    -0.317 OA
ATOM      7  C19 non dame1      25.043  29.738  35.599  0.00  0.00     0.212 C 
ENDBRANCH   2   6
ENDBRANCH   1   2
BRANCH   1   8
ATOM      8  C3  non dame1      26.561  28.564  31.940  0.00  0.00    -0.024 A 
ATOM      9  C4  non dame1      25.367  29.303  31.870  0.00  0.00     0.011 A 
ATOM     10  C5  non dame1      25.218  30.312  30.913  0.00  0.00     0.019 A 
ATOM     11  C6  non dame1      26.255  30.597  30.021  0.00  0.00     0.011 A 
ATOM     12  C7  non dame1      27.446  29.865  30.095  0.00  0.00     0.019 A 
ATOM     13 Br1  non dame1      26.056  31.983  28.697  0.00  0.00    -0.051 Br
ATOM     14  C8  non dame1      27.606  28.858  31.047  0.00  0.00     0.011 A 
ENDBRANCH   1   8
BRANCH   1  15
ATOM     15  N1  non dame1      25.576  26.577  32.867  0.00  0.00    -0.370 N 
ATOM     16  H9  non dame1      24.850  26.600  33.568  0.00  0.00     0.161 HD
BRANCH  15  17
ATOM     17  C9  non dame1      25.479  25.637  31.778  0.00  0.00     0.040 A 
ATOM     18  C10 non dame1      26.562  24.790  31.522  0.00  0.00     0.030 A 
ATOM     19  C11 non dame1      26.476  23.860  30.491  0.00  0.00     0.003 A 
ATOM     20  C12 non dame1      25.323  23.796  29.702  0.00  0.00     0.012 A 
ATOM     21  C13 non dame1      24.238  24.654  29.939  0.00  0.00    -0.024 A 
ATOM     22  C14 non dame1      23.075  24.605  29.152  0.00  0.00     0.012 A 
ATOM     23  C18 non dame1      24.314  25.586  30.997  0.00  0.00     0.001 A 
ATOM     24  C15 non dame1      22.004  25.463  29.408  0.00  0.00     0.001 A 
ATOM     25  C16 non dame1      22.079  26.377  30.455  0.00  0.00     0.001 A 
ATOM     26  C17 non dame1      23.227  26.438  31.246  0.00  0.00     0.014 A 
ENDBRANCH  15  17
ENDBRANCH   1  15
TORSDOF 6
ENDMDL
MODEL 57
REMARK VINA RESULT:      -0.0      4.297      6.088
REMARK NAME 24312258_Intermediate
REMARK  6 active torsions:
REMARK  status: ('A' for Active; 'I' for Inactive)
REMARK    1  A    between atoms: O1_2  and  P1_3 
REMARK    2  A    between atoms: P1_3  and  C2_4 
REMARK    3  A    between atoms: P1_3  and  O3_24 
REMARK    4  A    between atoms: C2_4  and  C3_5 
REMARK    5  A    between atoms: C2_4  and  N1_12 
REMARK    6  A    between atoms: N1_12  and  C9_13 
ROOT
ATOM      1  C2  non dame1      16.649  25.306  32.254  0.00  0.00     0.234 C 
ENDROOT
BRANCH   1   2
ATOM      2  P1  non dame1      16.786  26.665  30.976  0.00  0.00     0.354 P 
ATOM      3  O2  non dame1      15.410  27.206  30.667  0.00  0.00    -0.256 OA
BRANCH   2   4
ATOM      4  O1  non dame1      17.724  27.865  31.556  0.00  0.00    -0.317 OA
ATOM      5  C1  non dame1      16.918  28.801  32.254  0.00  0.00     0.212 C 
ENDBRANCH   2   4
BRANCH   2   6
ATOM      6  O3  non dame1      17.452  26.065  29.615  0.00  0.00    -0.317 OA
ATOM      7  C19 non dame1      18.616  26.806  29.290  0.00  0.00     0.212 C 
ENDBRANCH   2   6
ENDBRANCH   1   2
BRANCH   1   8
ATOM      8  C3  non dame1      17.904  25.244  33.046  0.00  0.00    -0.024 A 
ATOM      9  C4  non dame1      19.099  24.810  32.448  0.00  0.00     0.011 A 
ATOM     10  C5  non dame1      20.278  24.740  33.199  0.00  0.00     0.019 A 
ATOM     11  C6  non dame1      20.277  25.105  34.548  0.00  0.00     0.011 A 
ATOM     12  C7  non dame1      19.088  25.542  35.141  0.00  0.00     0.019 A 
ATOM     13 Br1  non dame1      21.895  25.008  35.589  0.00  0.00    -0.051 Br
ATOM     14  C8  non dame1      17.907  25.618  34.401  0.00  0.00     0.011 A 
ENDBRANCH   1   8
BRANCH   1  15
ATOM     15  N1  non dame1      16.433  24.029  31.584  0.00  0.00    -0.370 N 
ATOM     16  H9  non dame1      16.602  23.934  30.592  0.00  0.00     0.161 HD
BRANCH  15  17
ATOM     17  C9  non dame1      15.977  22.888  32.337  0.00  0.00     0.040 A 
ATOM     18  C10 non dame1      14.828  23.017  33.125  0.00  0.00     0.030 A 
ATOM     19  C11 non dame1      14.359  21.920  33.839  0.00  0.00     0.003 A 
ATOM     20  C12 non dame1      15.052  20.706  33.788  0.00  0.00     0.012 A 
ATOM     21  C13 non dame1      16.216  20.570  33.016  0.00  0.00    -0.024 A 
ATOM     22  C14 non dame1      16.924  19.359  32.959  0.00  0.00     0.012 A 
ATOM     23  C18 non dame1      16.684  21.677  32.274  0.00  0.00     0.001 A 
ATOM     24  C15 non dame1      18.077  19.243  32.179  0.00  0.00     0.001 A 
ATOM     25  C16 non dame1      18.533  20.334  31.445  0.00  0.00     0.001 A 
ATOM     26  C17 non dame1      17.840  21.544  31.490  0.00  0.00     0.014 A 
ENDBRANCH  15  17
ENDBRANCH   1  15
TORSDOF 6
ENDMDL
MODEL 58
REMARK VINA RESULT:      -0.0      0.000      0.000
REMARK NAME 103060289_Accepted
REMARK  7 active torsions:
REMARK  status: ('A' for Active; 'I' for Inactive)
REMARK    1  A    between atoms: C2_2  and  C3_3 
REMARK    2  A    between atoms: C2_2  and  N3_17 
REMARK    3  A    between atoms: C3_3  and  O2_5 
REMARK    4  A    between atoms: O2_5  and  C4_6 
REMARK    5  A    between atoms: C4_6  and  C5_7 
REMARK       I    between atoms: C5_7  and  N1_8 
REMARK    6  A    between atoms: N1_8  and  C6_9 
REMARK       I    between atoms: N3_17  and  C11_18 
REMARK    7  A    between atoms: C11_18  and  C12_19 
ROOT
ATOM      1  C3  non dame1      21.448  26.621  42.577  0.00  0.00     0.281 C 
ATOM      2  O1  non dame1      22.132  25.620  42.733  0.00  0.00    -0.263 OA
ENDROOT
BRANCH   1   3
ATOM      3  C2  non dame1      20.054  26.499  42.062  0.00  0.00     0.180 C 
ATOM      4  C1  non dame1      19.087  27.097  43.073  0.00  0.00     0.043 C 
BRANCH   3   5
ATOM      5  N3  non dame1      19.938  27.214  40.796  0.00  0.00    -0.344 N 
ATOM      6  C11 non dame1      19.977  26.525  39.615  0.00  0.00     0.252 C 
ATOM      7  O4  non dame1      20.110  25.309  39.621  0.00  0.00    -0.268 OA
ATOM      8  H11 non dame1      19.827  28.216  40.736  0.00  0.00     0.163 HD
BRANCH   6   9
ATOM      9  C12 non dame1      19.863  27.234  38.358  0.00  0.00     0.032 A 
ATOM     10  C13 non dame1      19.848  26.510  37.164  0.00  0.00     0.017 A 
ATOM     11  C14 non dame1      19.750  27.192  35.945  0.00  0.00     0.001 A 
ATOM     12  C15 non dame1      19.664  28.586  35.923  0.00  0.00     0.000 A 
ATOM     13  C16 non dame1      19.674  29.295  37.128  0.00  0.00     0.001 A 
ATOM     14  C17 non dame1      19.769  28.626  38.349  0.00  0.00     0.017 A 
ENDBRANCH   6   9
ENDBRANCH   3   5
ENDBRANCH   1   3
BRANCH   1  15
ATOM     15  O2  non dame1      21.958  27.841  42.873  0.00  0.00    -0.310 OA
BRANCH  15  16
ATOM     16  C4  non dame1      23.263  27.953  42.333  0.00  0.00     0.281 C 
BRANCH  16  17
ATOM     17  C5  non dame1      23.183  28.494  40.944  0.00  0.00     0.247 C 
ATOM     18  N1  non dame1      24.095  28.099  40.002  0.00  0.00    -0.310 N 
ATOM     19  H7  non dame1      24.815  27.440  40.263  0.00  0.00     0.170 HD
ATOM     20  O3  non dame1      22.305  29.289  40.648  0.00  0.00    -0.271 OA
BRANCH  18  21
ATOM     21  C6  non dame1      24.022  28.607  38.704  0.00  0.00     0.129 A 
ATOM     22  C7  non dame1      23.400  27.832  37.691  0.00  0.00     0.052 A 
ATOM     23  C8  non dame1      23.320  28.351  36.401  0.00  0.00     0.029 A 
ATOM     24  C9  non dame1      23.883  29.609  36.153  0.00  0.00     0.051 A 
ATOM     25  C10 non dame1      24.479  30.316  37.198  0.00  0.00     0.142 A 
ATOM     26 Cl1  non dame1      23.841  30.299  34.537  0.00  0.00    -0.083 Cl
ATOM     27  N2  non dame1      24.539  29.819  38.444  0.00  0.00    -0.242 NA
ENDBRANCH  18  21
ENDBRANCH  16  17
ENDBRANCH  15  16
ENDBRANCH   1  15
TORSDOF 7
ENDMDL
MODEL 59
REMARK VINA RESULT:      -0.0      5.731      8.415
REMARK NAME 103060289_Accepted
REMARK  7 active torsions:
REMARK  status: ('A' for Active; 'I' for Inactive)
REMARK    1  A    between atoms: C2_2  and  C3_3 
REMARK    2  A    between atoms: C2_2  and  N3_17 
REMARK    3  A    between atoms: C3_3  and  O2_5 
REMARK    4  A    between atoms: O2_5  and  C4_6 
REMARK    5  A    between atoms: C4_6  and  C5_7 
REMARK       I    between atoms: C5_7  and  N1_8 
REMARK    6  A    between atoms: N1_8  and  C6_9 
REMARK       I    between atoms: N3_17  and  C11_18 
REMARK    7  A    between atoms: C11_18  and  C12_19 
ROOT
ATOM      1  C3  non dame1      21.039  23.435  31.239  0.00  0.00     0.281 C 
ATOM      2  O1  non dame1      21.901  22.734  30.733  0.00  0.00    -0.263 OA
ENDROOT
BRANCH   1   3
ATOM      3  C2  non dame1      21.167  24.920  31.201  0.00  0.00     0.180 C 
ATOM      4  C1  non dame1      19.953  25.515  30.502  0.00  0.00     0.043 C 
BRANCH   3   5
ATOM      5  N3  non dame1      21.245  25.438  32.562  0.00  0.00    -0.344 N 
ATOM      6  C11 non dame1      22.458  25.780  33.095  0.00  0.00     0.252 C 
ATOM      7  O4  non dame1      23.476  25.651  32.429  0.00  0.00    -0.268 OA
ATOM      8  H11 non dame1      20.436  25.563  33.153  0.00  0.00     0.163 HD
BRANCH   6   9
ATOM      9  C12 non dame1      22.538  26.292  34.446  0.00  0.00     0.032 A 
ATOM     10  C13 non dame1      23.771  26.715  34.946  0.00  0.00     0.017 A 
ATOM     11  C14 non dame1      23.856  27.201  36.256  0.00  0.00     0.001 A 
ATOM     12  C15 non dame1      22.714  27.266  37.058  0.00  0.00     0.000 A 
ATOM     13  C16 non dame1      21.485  26.844  36.540  0.00  0.00     0.001 A 
ATOM     14  C17 non dame1      21.388  26.360  35.235  0.00  0.00     0.017 A 
ENDBRANCH   6   9
ENDBRANCH   3   5
ENDBRANCH   1   3
BRANCH   1  15
ATOM     15  O2  non dame1      19.965  22.862  31.835  0.00  0.00    -0.310 OA
BRANCH  15  16
ATOM     16  C4  non dame1      20.394  21.791  32.658  0.00  0.00     0.281 C 
BRANCH  16  17
ATOM     17  C5  non dame1      20.716  22.307  34.021  0.00  0.00     0.247 C 
ATOM     18  N1  non dame1      21.733  21.744  34.744  0.00  0.00    -0.310 N 
ATOM     19  H7  non dame1      22.257  20.981  34.340  0.00  0.00     0.170 HD
ATOM     20  O3  non dame1      20.072  23.232  34.491  0.00  0.00    -0.271 OA
BRANCH  18  21
ATOM     21  C6  non dame1      22.032  22.225  36.020  0.00  0.00     0.129 A 
ATOM     22  C7  non dame1      23.093  23.153  36.179  0.00  0.00     0.052 A 
ATOM     23  C8  non dame1      23.378  23.638  37.453  0.00  0.00     0.029 A 
ATOM     24  C9  non dame1      22.617  23.166  38.530  0.00  0.00     0.051 A 
ATOM     25  C10 non dame1      21.587  22.253  38.299  0.00  0.00     0.142 A 
ATOM     26 Cl1  non dame1      22.952  23.718  40.165  0.00  0.00    -0.083 Cl
ATOM     27  N2  non dame1      21.306  21.802  37.067  0.00  0.00    -0.242 NA
ENDBRANCH  18  21
ENDBRANCH  16  17
ENDBRANCH  15  16
ENDBRANCH   1  15
TORSDOF 7
ENDMDL
MODEL 60
REMARK VINA RESULT:      -0.0      5.558      7.172
REMARK NAME 103060289_Accepted
REMARK  7 active torsions:
REMARK  status: ('A' for Active; 'I' for Inactive)
REMARK    1  A    between atoms: C2_2  and  C3_3 
REMARK    2  A    between atoms: C2_2  and  N3_17 
REMARK    3  A    between atoms: C3_3  and  O2_5 
REMARK    4  A    between atoms: O2_5  and  C4_6 
REMARK    5  A    between atoms: C4_6  and  C5_7 
REMARK       I    between atoms: C5_7  and  N1_8 
REMARK    6  A    between atoms: N1_8  and  C6_9 
REMARK       I    between atoms: N3_17  and  C11_18 
REMARK    7  A    between atoms: C11_18  and  C12_19 
ROOT
ATOM      1  C3  non dame1      25.531  22.710  39.421  0.00  0.00     0.281 C 
ATOM      2  O1  non dame1      24.903  22.472  40.441  0.00  0.00    -0.263 OA
ENDROOT
BRANCH   1   3
ATOM      3  C2  non dame1      25.834  24.120  39.043  0.00  0.00     0.180 C 
ATOM      4  C1  non dame1      27.341  24.306  38.944  0.00  0.00     0.043 C 
BRANCH   3   5
ATOM      5  N3  non dame1      25.222  24.421  37.753  0.00  0.00    -0.344 N 
ATOM      6  C11 non dame1      24.053  25.130  37.700  0.00  0.00     0.252 C 
ATOM      7  O4  non dame1      23.521  25.511  38.733  0.00  0.00    -0.268 OA
ATOM      8  H11 non dame1      25.620  24.130  36.872  0.00  0.00     0.163 HD
BRANCH   6   9
ATOM      9  C12 non dame1      23.444  25.428  36.420  0.00  0.00     0.032 A 
ATOM     10  C13 non dame1      22.278  26.195  36.380  0.00  0.00     0.017 A 
ATOM     11  C14 non dame1      21.679  26.476  35.146  0.00  0.00     0.001 A 
ATOM     12  C15 non dame1      22.245  25.995  33.963  0.00  0.00     0.000 A 
ATOM     13  C16 non dame1      23.416  25.233  34.021  0.00  0.00     0.001 A 
ATOM     14  C17 non dame1      24.023  24.949  35.244  0.00  0.00     0.017 A 
ENDBRANCH   6   9
ENDBRANCH   3   5
ENDBRANCH   1   3
BRANCH   1  15
ATOM     15  O2  non dame1      25.953  21.691  38.633  0.00  0.00    -0.310 OA
BRANCH  15  16
ATOM     16  C4  non dame1      24.897  20.764  38.451  0.00  0.00     0.281 C 
BRANCH  16  17
ATOM     17  C5  non dame1      24.096  21.152  37.252  0.00  0.00     0.247 C 
ATOM     18  N1  non dame1      22.748  20.914  37.224  0.00  0.00    -0.310 N 
ATOM     19  H7  non dame1      22.310  20.477  38.023  0.00  0.00     0.170 HD
ATOM     20  O3  non dame1      24.643  21.681  36.297  0.00  0.00    -0.271 OA
BRANCH  18  21
ATOM     21  C6  non dame1      21.999  21.274  36.102  0.00  0.00     0.129 A 
ATOM     22  C7  non dame1      21.291  22.503  36.108  0.00  0.00     0.052 A 
ATOM     23  C8  non dame1      20.556  22.862  34.980  0.00  0.00     0.029 A 
ATOM     24  C9  non dame1      20.527  21.976  33.896  0.00  0.00     0.051 A 
ATOM     25  C10 non dame1      21.248  20.784  33.960  0.00  0.00     0.142 A 
ATOM     26 Cl1  non dame1      19.589  22.360  32.459  0.00  0.00    -0.083 Cl
ATOM     27  N2  non dame1      21.969  20.451  35.042  0.00  0.00    -0.242 NA
ENDBRANCH  18  21
ENDBRANCH  16  17
ENDBRANCH  15  16
ENDBRANCH   1  15
TORSDOF 7
ENDMDL
MODEL 61
REMARK VINA RESULT:      -0.0      0.000      0.000
REMARK NAME 99454415_Intermediate
REMARK  7 active torsions:
REMARK  status: ('A' for Active; 'I' for Inactive)
REMARK    1  A    between atoms: C2_2  and  C13_14 
REMARK    2  A    between atoms: N1_5  and  C5_6 
REMARK    3  A    between atoms: C5_6  and  C6_7 
REMARK    4  A    between atoms: C6_7  and  C7_8 
REMARK       I    between atoms: C13_14  and  N2_15 
REMARK    5  A    between atoms: N2_15  and  C14_16 
REMARK    6  A    between atoms: C19_21  and  C20_22 
REMARK    7  A    between atoms: C20_22  and  C21_23 
ROOT
ATOM      1  C13 non dame1      20.976  23.964  32.010  0.00  0.00     0.258 C 
ATOM      2  N2  non dame1      21.864  24.922  32.421  0.00  0.00    -0.325 N 
ATOM      3  O1  non dame1      21.215  22.783  32.213  0.00  0.00    -0.270 OA
ATOM      4  H18 non dame1      21.659  25.896  32.247  0.00  0.00     0.169 HD
ENDROOT
BRANCH   1   5
ATOM      5  C2  non dame1      19.687  24.373  31.296  0.00  0.00     0.205 C 
ATOM      6  C1  non dame1      19.506  25.863  31.402  0.00  0.00     0.057 C 
ATOM      7  C3  non dame1      19.645  23.912  29.928  0.00  0.00     0.076 C 
ATOM      8  C4  non dame1      18.189  23.570  30.325  0.00  0.00     0.239 C 
ATOM      9  N1  non dame1      18.587  23.674  31.745  0.00  0.00    -0.053 N 
ATOM     10  H8  non dame1      18.734  22.890  32.366  0.00  0.00     0.281 HD
BRANCH   9  11
ATOM     11  C5  non dame1      17.638  24.395  32.572  0.00  0.00     0.241 C 
BRANCH  11  12
ATOM     12  C6  non dame1      17.401  23.625  33.861  0.00  0.00     0.066 C 
BRANCH  12  13
ATOM     13  C7  non dame1      17.691  24.504  35.024  0.00  0.00    -0.057 A 
ATOM     14  C8  non dame1      18.297  25.758  34.830  0.00  0.00     0.007 A 
ATOM     15  C9  non dame1      18.582  26.579  35.925  0.00  0.00     0.001 A 
ATOM     16  C10 non dame1      18.263  26.161  37.220  0.00  0.00     0.000 A 
ATOM     17  C11 non dame1      17.653  24.918  37.411  0.00  0.00     0.001 A 
ATOM     18  C12 non dame1      17.363  24.090  36.325  0.00  0.00     0.007 A 
ENDBRANCH  12  13
ENDBRANCH  11  12
ENDBRANCH   9  11
ENDBRANCH   1   5
BRANCH   2  19
ATOM     19  C14 non dame1      23.031  24.553  33.069  0.00  0.00     0.041 A 
ATOM     20  C15 non dame1      24.090  24.026  32.325  0.00  0.00     0.030 A 
ATOM     21  C16 non dame1      25.268  23.641  32.976  0.00  0.00     0.002 A 
ATOM     22  C17 non dame1      25.384  23.783  34.360  0.00  0.00     0.001 A 
ATOM     23  C18 non dame1      24.317  24.317  35.092  0.00  0.00     0.010 A 
ATOM     24  C19 non dame1      23.139  24.707  34.453  0.00  0.00    -0.027 A 
BRANCH  24  25
ATOM     25  C20 non dame1      22.017  25.277  35.221  0.00  0.00     0.079 C 
BRANCH  25  26
ATOM     26  C21 non dame1      21.475  24.248  36.144  0.00  0.00    -0.054 A 
ATOM     27  C22 non dame1      20.939  23.051  35.638  0.00  0.00     0.007 A 
ATOM     28  C23 non dame1      20.418  22.087  36.508  0.00  0.00     0.001 A 
ATOM     29  C24 non dame1      20.428  22.305  37.889  0.00  0.00     0.000 A 
ATOM     30  C25 non dame1      20.967  23.496  38.392  0.00  0.00     0.001 A 
ATOM     31  C26 non dame1      21.491  24.461  37.532  0.00  0.00     0.007 A 
ENDBRANCH  25  26
ENDBRANCH  24  25
ENDBRANCH   2  19
TORSDOF 7
ENDMDL
MODEL 62
REMARK VINA RESULT:      -0.0      3.687      7.282
REMARK NAME 99454415_Intermediate
REMARK  7 active torsions:
REMARK  status: ('A' for Active; 'I' for Inactive)
REMARK    1  A    between atoms: C2_2  and  C13_14 
REMARK    2  A    between atoms: N1_5  and  C5_6 
REMARK    3  A    between atoms: C5_6  and  C6_7 
REMARK    4  A    between atoms: C6_7  and  C7_8 
REMARK       I    between atoms: C13_14  and  N2_15 
REMARK    5  A    between atoms: N2_15  and  C14_16 
REMARK    6  A    between atoms: C19_21  and  C20_22 
REMARK    7  A    between atoms: C20_22  and  C21_23 
ROOT
ATOM      1  C13 non dame1      17.334  24.862  33.927  0.00  0.00     0.258 C 
ATOM      2  N2  non dame1      16.875  23.651  33.481  0.00  0.00    -0.325 N 
ATOM      3  O1  non dame1      16.911  25.896  33.433  0.00  0.00    -0.270 OA
ATOM      4  H18 non dame1      17.232  22.802  33.895  0.00  0.00     0.169 HD
ENDROOT
BRANCH   1   5
ATOM      5  C2  non dame1      18.378  24.919  35.045  0.00  0.00     0.205 C 
ATOM      6  C1  non dame1      18.544  23.550  35.646  0.00  0.00     0.057 C 
ATOM      7  C3  non dame1      19.632  25.477  34.597  0.00  0.00     0.076 C 
ATOM      8  C4  non dame1      19.532  26.211  35.956  0.00  0.00     0.239 C 
ATOM      9  N1  non dame1      18.091  25.880  35.989  0.00  0.00    -0.053 N 
ATOM     10  H8  non dame1      17.341  26.532  35.803  0.00  0.00     0.281 HD
BRANCH   9  11
ATOM     11  C5  non dame1      17.623  25.417  37.282  0.00  0.00     0.241 C 
BRANCH  11  12
ATOM     12  C6  non dame1      16.317  26.115  37.628  0.00  0.00     0.066 C 
BRANCH  12  13
ATOM     13  C7  non dame1      15.270  25.098  37.907  0.00  0.00    -0.057 A 
ATOM     14  C8  non dame1      15.513  23.739  37.638  0.00  0.00     0.007 A 
ATOM     15  C9  non dame1      14.524  22.784  37.887  0.00  0.00     0.001 A 
ATOM     16  C10 non dame1      13.286  23.172  38.408  0.00  0.00     0.000 A 
ATOM     17  C11 non dame1      13.048  24.523  38.681  0.00  0.00     0.001 A 
ATOM     18  C12 non dame1      14.029  25.485  38.438  0.00  0.00     0.007 A 
ENDBRANCH  12  13
ENDBRANCH  11  12
ENDBRANCH   9  11
ENDBRANCH   1   5
BRANCH   2  19
ATOM     19  C14 non dame1      15.929  23.599  32.471  0.00  0.00     0.041 A 
ATOM     20  C15 non dame1      16.323  23.831  31.151  0.00  0.00     0.030 A 
ATOM     21  C16 non dame1      15.369  23.790  30.127  0.00  0.00     0.002 A 
ATOM     22  C17 non dame1      14.032  23.518  30.423  0.00  0.00     0.001 A 
ATOM     23  C18 non dame1      13.652  23.282  31.750  0.00  0.00     0.010 A 
ATOM     24  C19 non dame1      14.596  23.318  32.778  0.00  0.00    -0.027 A 
BRANCH  24  25
ATOM     25  C20 non dame1      14.200  23.061  34.175  0.00  0.00     0.079 C 
BRANCH  25  26
ATOM     26  C21 non dame1      13.283  24.137  34.635  0.00  0.00    -0.054 A 
ATOM     27  C22 non dame1      13.715  25.474  34.662  0.00  0.00     0.007 A 
ATOM     28  C23 non dame1      12.855  26.484  35.107  0.00  0.00     0.001 A 
ATOM     29  C24 non dame1      11.558  26.172  35.526  0.00  0.00     0.000 A 
ATOM     30  C25 non dame1      11.128  24.839  35.494  0.00  0.00     0.001 A 
ATOM     31  C26 non dame1      11.978  23.826  35.050  0.00  0.00     0.007 A 
ENDBRANCH  25  26
ENDBRANCH  24  25
ENDBRANCH   2  19
TORSDOF 7
ENDMDL
MODEL 63
REMARK VINA RESULT:      -0.0      4.058      7.497
REMARK NAME 99454415_Intermediate
REMARK  7 active torsions:
REMARK  status: ('A' for Active; 'I' for Inactive)
REMARK    1  A    between atoms: C2_2  and  C13_14 
REMARK    2  A    between atoms: N1_5  and  C5_6 
REMARK    3  A    between atoms: C5_6  and  C6_7 
REMARK    4  A    between atoms: C6_7  and  C7_8 
REMARK       I    between atoms: C13_14  and  N2_15 
REMARK    5  A    between atoms: N2_15  and  C14_16 
REMARK    6  A    between atoms: C19_21  and  C20_22 
REMARK    7  A    between atoms: C20_22  and  C21_23 
ROOT
ATOM      1  C13 non dame1      17.720  26.741  34.822  0.00  0.00     0.258 C 
ATOM      2  N2  non dame1      17.300  25.880  33.844  0.00  0.00    -0.325 N 
ATOM      3  O1  non dame1      17.432  27.927  34.757  0.00  0.00    -0.270 OA
ATOM      4  H18 non dame1      17.545  24.901  33.905  0.00  0.00     0.169 HD
ENDROOT
BRANCH   1   5
ATOM      5  C2  non dame1      18.551  26.218  35.996  0.00  0.00     0.205 C 
ATOM      6  C1  non dame1      18.554  24.714  35.977  0.00  0.00     0.057 C 
ATOM      7  C3  non dame1      19.886  26.769  36.013  0.00  0.00     0.076 C 
ATOM      8  C4  non dame1      19.575  26.885  37.525  0.00  0.00     0.239 C 
ATOM      9  N1  non dame1      18.139  26.731  37.207  0.00  0.00    -0.053 N 
ATOM     10  H8  non dame1      17.461  27.480  37.208  0.00  0.00     0.281 HD
BRANCH   9  11
ATOM     11  C5  non dame1      17.431  25.832  38.099  0.00  0.00     0.241 C 
BRANCH  11  12
ATOM     12  C6  non dame1      16.114  26.466  38.516  0.00  0.00     0.066 C 
BRANCH  12  13
ATOM     13  C7  non dame1      14.995  25.546  38.183  0.00  0.00    -0.057 A 
ATOM     14  C8  non dame1      15.228  24.401  37.402  0.00  0.00     0.007 A 
ATOM     15  C9  non dame1      14.173  23.543  37.077  0.00  0.00     0.001 A 
ATOM     16  C10 non dame1      12.879  23.817  37.529  0.00  0.00     0.000 A 
ATOM     17  C11 non dame1      12.649  24.952  38.312  0.00  0.00     0.001 A 
ATOM     18  C12 non dame1      13.695  25.815  38.644  0.00  0.00     0.007 A 
ENDBRANCH  12  13
ENDBRANCH  11  12
ENDBRANCH   9  11
ENDBRANCH   1   5
BRANCH   2  19
ATOM     19  C14 non dame1      16.547  26.352  32.782  0.00  0.00     0.041 A 
ATOM     20  C15 non dame1      17.178  27.061  31.757  0.00  0.00     0.030 A 
ATOM     21  C16 non dame1      16.419  27.550  30.687  0.00  0.00     0.002 A 
ATOM     22  C17 non dame1      15.041  27.330  30.644  0.00  0.00     0.001 A 
ATOM     23  C18 non dame1      14.423  26.613  31.675  0.00  0.00     0.010 A 
ATOM     24  C19 non dame1      15.170  26.118  32.745  0.00  0.00    -0.027 A 
BRANCH  24  25
ATOM     25  C20 non dame1      14.523  25.356  33.829  0.00  0.00     0.079 C 
BRANCH  25  26
ATOM     26  C21 non dame1      13.583  26.241  34.564  0.00  0.00    -0.054 A 
ATOM     27  C22 non dame1      14.055  27.392  35.217  0.00  0.00     0.007 A 
ATOM     28  C23 non dame1      13.170  28.218  35.919  0.00  0.00     0.001 A 
ATOM     29  C24 non dame1      11.808  27.906  35.974  0.00  0.00     0.000 A 
ATOM     30  C25 non dame1      11.339  26.761  35.319  0.00  0.00     0.001 A 
ATOM     31  C26 non dame1      12.213  25.933  34.615  0.00  0.00     0.007 A 
ENDBRANCH  25  26
ENDBRANCH  24  25
ENDBRANCH   2  19
TORSDOF 7
ENDMDL
MODEL 64
REMARK VINA RESULT:      -0.0      0.000      0.000
REMARK NAME 17438626_Intermediate
REMARK  5 active torsions:
REMARK  status: ('A' for Active; 'I' for Inactive)
REMARK    1  A    between atoms: O1_1  and  C1_2 
REMARK    2  A    between atoms: C1_2  and  C2_3 
REMARK    3  A    between atoms: C1_2  and  C8_9 
REMARK    4  A    between atoms: C1_2  and  C14_15 
REMARK    5  A    between atoms: C19_20  and  O2_21 
ROOT
ATOM      1  C1  non dame1      15.385  29.727  33.910  0.00  0.00     0.142 C 
ENDROOT
BRANCH   1   2
ATOM      2  O1  non dame1      16.470  30.450  34.467  0.00  0.00    -0.375 OA
ATOM      3  H1  non dame1      16.136  31.217  34.938  0.00  0.00     0.211 HD
ENDBRANCH   1   2
BRANCH   1   4
ATOM      4  C2  non dame1      15.873  28.424  33.387  0.00  0.00    -0.015 A 
ATOM      5  C3  non dame1      15.267  27.840  32.262  0.00  0.00     0.011 A 
ATOM      6  C4  non dame1      15.720  26.608  31.777  0.00  0.00     0.001 A 
ATOM      7  C5  non dame1      16.780  25.950  32.407  0.00  0.00     0.000 A 
ATOM      8  C6  non dame1      17.388  26.537  33.523  0.00  0.00     0.001 A 
ATOM      9  C7  non dame1      16.945  27.766  34.013  0.00  0.00     0.011 A 
ENDBRANCH   1   4
BRANCH   1  10
ATOM     10  C8  non dame1      14.789  30.507  32.809  0.00  0.00    -0.015 A 
ATOM     11  C9  non dame1      15.600  31.358  32.056  0.00  0.00     0.011 A 
ATOM     12  C10 non dame1      15.039  32.110  31.017  0.00  0.00     0.001 A 
ATOM     13  C11 non dame1      13.675  32.008  30.734  0.00  0.00     0.000 A 
ATOM     14  C12 non dame1      12.876  31.147  31.492  0.00  0.00     0.001 A 
ATOM     15  C13 non dame1      13.426  30.391  32.528  0.00  0.00     0.011 A 
ENDBRANCH   1  10
BRANCH   1  16
ATOM     16  C14 non dame1      14.360  29.486  34.959  0.00  0.00     0.018 A 
ATOM     17  C15 non dame1      13.777  28.217  35.103  0.00  0.00     0.013 A 
ATOM     18  C16 non dame1      12.803  27.996  36.083  0.00  0.00     0.001 A 
ATOM     19  C17 non dame1      12.407  29.035  36.929  0.00  0.00     0.003 A 
ATOM     20  C18 non dame1      12.992  30.297  36.789  0.00  0.00     0.037 A 
ATOM     21  C19 non dame1      13.966  30.528  35.817  0.00  0.00     0.075 A 
BRANCH  21  22
ATOM     22  O2  non dame1      14.514  31.694  35.693  0.00  0.00    -0.360 OA
ATOM     23  H16 non dame1      13.835  32.349  35.516  0.00  0.00     0.217 HD
ENDBRANCH  21  22
ENDBRANCH   1  16
TORSDOF 5
ENDMDL
MODEL 65
REMARK VINA RESULT:      -0.0      2.395      3.419
REMARK NAME 17438626_Intermediate
REMARK  5 active torsions:
REMARK  status: ('A' for Active; 'I' for Inactive)
REMARK    1  A    between atoms: O1_1  and  C1_2 
REMARK    2  A    between atoms: C1_2  and  C2_3 
REMARK    3  A    between atoms: C1_2  and  C8_9 
REMARK    4  A    between atoms: C1_2  and  C14_15 
REMARK    5  A    between atoms: C19_20  and  O2_21 
ROOT
ATOM      1  C1  non dame1      16.199  30.433  33.675  0.00  0.00     0.142 C 
ENDROOT
BRANCH   1   2
ATOM      2  O1  non dame1      15.521  31.368  34.499  0.00  0.00    -0.375 OA
ATOM      3  H1  non dame1      16.040  32.174  34.561  0.00  0.00     0.211 HD
ENDBRANCH   1   2
BRANCH   1   4
ATOM      4  C2  non dame1      17.667  30.604  33.835  0.00  0.00    -0.015 A 
ATOM      5  C3  non dame1      18.531  30.356  32.755  0.00  0.00     0.011 A 
ATOM      6  C4  non dame1      19.914  30.507  32.909  0.00  0.00     0.001 A 
ATOM      7  C5  non dame1      20.445  30.906  34.138  0.00  0.00     0.000 A 
ATOM      8  C6  non dame1      19.583  31.161  35.211  0.00  0.00     0.001 A 
ATOM      9  C7  non dame1      18.202  31.016  35.067  0.00  0.00     0.011 A 
ENDBRANCH   1   4
BRANCH   1  10
ATOM     10  C8  non dame1      15.828  30.661  32.265  0.00  0.00    -0.015 A 
ATOM     11  C9  non dame1      15.506  31.953  31.842  0.00  0.00     0.011 A 
ATOM     12  C10 non dame1      15.141  32.174  30.509  0.00  0.00     0.001 A 
ATOM     13  C11 non dame1      15.101  31.109  29.606  0.00  0.00     0.000 A 
ATOM     14  C12 non dame1      15.432  29.822  30.042  0.00  0.00     0.001 A 
ATOM     15  C13 non dame1      15.799  29.592  31.368  0.00  0.00     0.011 A 
ENDBRANCH   1  10
BRANCH   1  16
ATOM     16  C14 non dame1      15.815  29.054  34.072  0.00  0.00     0.018 A 
ATOM     17  C15 non dame1      16.797  28.060  34.221  0.00  0.00     0.013 A 
ATOM     18  C16 non dame1      16.431  26.759  34.583  0.00  0.00     0.001 A 
ATOM     19  C17 non dame1      15.090  26.438  34.804  0.00  0.00     0.003 A 
ATOM     20  C18 non dame1      14.114  27.430  34.660  0.00  0.00     0.037 A 
ATOM     21  C19 non dame1      14.466  28.732  34.303  0.00  0.00     0.075 A 
BRANCH  21  22
ATOM     22  O2  non dame1      13.564  29.652  34.179  0.00  0.00    -0.360 OA
ATOM     23  H16 non dame1      13.944  30.414  33.738  0.00  0.00     0.217 HD
ENDBRANCH  21  22
ENDBRANCH   1  16
TORSDOF 5
ENDMDL
MODEL 66
REMARK VINA RESULT:      -0.0      3.754      6.677
REMARK NAME 17438626_Intermediate
REMARK  5 active torsions:
REMARK  status: ('A' for Active; 'I' for Inactive)
REMARK    1  A    between atoms: O1_1  and  C1_2 
REMARK    2  A    between atoms: C1_2  and  C2_3 
REMARK    3  A    between atoms: C1_2  and  C8_9 
REMARK    4  A    between atoms: C1_2  and  C14_15 
REMARK    5  A    between atoms: C19_20  and  O2_21 
ROOT
ATOM      1  C1  non dame1      16.660  28.253  29.479  0.00  0.00     0.142 C 
ENDROOT
BRANCH   1   2
ATOM      2  O1  non dame1      17.801  28.248  28.638  0.00  0.00    -0.375 OA
ATOM      3  H1  non dame1      17.528  28.377  27.727  0.00  0.00     0.211 HD
ENDBRANCH   1   2
BRANCH   1   4
ATOM      4  C2  non dame1      15.970  29.565  29.372  0.00  0.00    -0.015 A 
ATOM      5  C3  non dame1      16.708  30.735  29.126  0.00  0.00     0.011 A 
ATOM      6  C4  non dame1      16.060  31.972  29.036  0.00  0.00     0.001 A 
ATOM      7  C5  non dame1      14.673  32.052  29.188  0.00  0.00     0.000 A 
ATOM      8  C6  non dame1      13.938  30.884  29.425  0.00  0.00     0.001 A 
ATOM      9  C7  non dame1      14.575  29.646  29.514  0.00  0.00     0.011 A 
ENDBRANCH   1   4
BRANCH   1  10
ATOM     10  C8  non dame1      17.078  28.030  30.877  0.00  0.00    -0.015 A 
ATOM     11  C9  non dame1      18.195  27.234  31.138  0.00  0.00     0.011 A 
ATOM     12  C10 non dame1      18.590  27.009  32.462  0.00  0.00     0.001 A 
ATOM     13  C11 non dame1      17.872  27.579  33.517  0.00  0.00     0.000 A 
ATOM     14  C12 non dame1      16.759  28.380  33.239  0.00  0.00     0.001 A 
ATOM     15  C13 non dame1      16.359  28.612  31.922  0.00  0.00     0.011 A 
ENDBRANCH   1  10
BRANCH   1  16
ATOM     16  C14 non dame1      15.732  27.170  29.061  0.00  0.00     0.018 A 
ATOM     17  C15 non dame1      15.137  26.336  30.021  0.00  0.00     0.013 A 
ATOM     18  C16 non dame1      14.273  25.309  29.623  0.00  0.00     0.001 A 
ATOM     19  C17 non dame1      13.993  25.108  28.269  0.00  0.00     0.003 A 
ATOM     20  C18 non dame1      14.582  25.943  27.314  0.00  0.00     0.037 A 
ATOM     21  C19 non dame1      15.442  26.972  27.699  0.00  0.00     0.075 A 
BRANCH  21  22
ATOM     22  O2  non dame1      15.980  27.750  26.816  0.00  0.00    -0.360 OA
ATOM     23  H16 non dame1      16.690  28.252  27.222  0.00  0.00     0.217 HD
ENDBRANCH  21  22
ENDBRANCH   1  16
TORSDOF 5
ENDMDL
MODEL 67
REMARK VINA RESULT:      -0.0      0.000      0.000
REMARK NAME 14727027_Intermediate
REMARK  2 active torsions:
REMARK  status: ('A' for Active; 'I' for Inactive)
REMARK    1  A    between atoms: C7_8  and  N1_9 
REMARK    2  A    between atoms: N1_9  and  C8_10 
ROOT
ATOM      1  C1  non dame1      19.102  29.524  30.355  0.00  0.00     0.050 C 
ATOM      2  C2  non dame1      19.078  28.572  29.255  0.00  0.00    -0.032 A 
ATOM      3  C3  non dame1      20.287  28.208  28.691  0.00  0.00    -0.012 A 
ATOM      4  C4  non dame1      21.571  28.724  29.139  0.00  0.00     0.057 C 
ATOM      5  S1  non dame1      20.098  27.087  27.416  0.00  0.00    -0.074 SA
ATOM      6  C5  non dame1      18.404  27.078  27.599  0.00  0.00     0.114 A 
ATOM      7  C6  non dame1      17.966  27.910  28.618  0.00  0.00     0.053 A 
ATOM      8  C7  non dame1      16.577  27.928  28.804  0.00  0.00     0.143 A 
ATOM      9  N2  non dame1      15.763  27.213  27.992  0.00  0.00    -0.223 NA
ATOM     10  C14 non dame1      16.336  26.447  27.057  0.00  0.00     0.236 A 
ATOM     11  N3  non dame1      17.639  26.321  26.792  0.00  0.00    -0.234 NA
ENDROOT
BRANCH   8  12
ATOM     12  N1  non dame1      16.032  28.723  29.876  0.00  0.00    -0.340 N 
ATOM     13  H7  non dame1      16.171  28.433  30.833  0.00  0.00     0.167 HD
BRANCH  12  14
ATOM     14  C8  non dame1      15.288  29.933  29.576  0.00  0.00     0.033 A 
ATOM     15  C9  non dame1      13.920  30.018  29.886  0.00  0.00     0.029 A 
ATOM     16  C10 non dame1      13.201  31.181  29.584  0.00  0.00     0.002 A 
ATOM     17  C11 non dame1      13.838  32.265  28.977  0.00  0.00     0.000 A 
ATOM     18  C12 non dame1      15.201  32.181  28.674  0.00  0.00     0.002 A 
ATOM     19  C13 non dame1      15.928  31.027  28.973  0.00  0.00     0.029 A 
ENDBRANCH  12  14
ENDBRANCH   8  12
TORSDOF 2
ENDMDL
MODEL 68
REMARK VINA RESULT:      -0.0      3.690      4.990
REMARK NAME 14727027_Intermediate
REMARK  2 active torsions:
REMARK  status: ('A' for Active; 'I' for Inactive)
REMARK    1  A    between atoms: C7_8  and  N1_9 
REMARK    2  A    between atoms: N1_9  and  C8_10 
ROOT
ATOM      1  C1  non dame1      16.608  26.766  31.075  0.00  0.00     0.050 C 
ATOM      2  C2  non dame1      17.089  27.277  32.349  0.00  0.00    -0.032 A 
ATOM      3  C3  non dame1      18.158  26.630  32.941  0.00  0.00    -0.012 A 
ATOM      4  C4  non dame1      18.822  25.474  32.358  0.00  0.00     0.057 C 
ATOM      5  S1  non dame1      18.607  27.343  34.428  0.00  0.00    -0.074 SA
ATOM      6  C5  non dame1      17.379  28.517  34.300  0.00  0.00     0.114 A 
ATOM      7  C6  non dame1      16.626  28.390  33.143  0.00  0.00     0.053 A 
ATOM      8  C7  non dame1      15.607  29.340  32.999  0.00  0.00     0.143 A 
ATOM      9  N2  non dame1      15.380  30.261  33.966  0.00  0.00    -0.223 NA
ATOM     10  C14 non dame1      16.199  30.265  35.023  0.00  0.00     0.236 A 
ATOM     11  N3  non dame1      17.217  29.435  35.270  0.00  0.00    -0.234 NA
ENDROOT
BRANCH   8  12
ATOM     12  N1  non dame1      14.805  29.320  31.801  0.00  0.00    -0.340 N 
ATOM     13  H7  non dame1      14.111  28.598  31.677  0.00  0.00     0.167 HD
BRANCH  12  14
ATOM     14  C8  non dame1      14.999  30.335  30.781  0.00  0.00     0.033 A 
ATOM     15  C9  non dame1      14.018  31.317  30.564  0.00  0.00     0.029 A 
ATOM     16  C10 non dame1      14.200  32.287  29.571  0.00  0.00     0.002 A 
ATOM     17  C11 non dame1      15.360  32.288  28.792  0.00  0.00     0.000 A 
ATOM     18  C12 non dame1      16.339  31.314  29.014  0.00  0.00     0.002 A 
ATOM     19  C13 non dame1      16.168  30.343  30.004  0.00  0.00     0.029 A 
ENDBRANCH  12  14
ENDBRANCH   8  12
TORSDOF 2
ENDMDL
MODEL 69
REMARK VINA RESULT:      -0.0      2.995      5.912
REMARK NAME 14727027_Intermediate
REMARK  2 active torsions:
REMARK  status: ('A' for Active; 'I' for Inactive)
REMARK    1  A    between atoms: C7_8  and  N1_9 
REMARK    2  A    between atoms: N1_9  and  C8_10 
ROOT
ATOM      1  C1  non dame1      14.973  27.198  30.317  0.00  0.00     0.050 C 
ATOM      2  C2  non dame1      14.017  28.235  29.963  0.00  0.00    -0.032 A 
ATOM      3  C3  non dame1      12.696  27.862  29.791  0.00  0.00    -0.012 A 
ATOM      4  C4  non dame1      12.219  26.497  29.945  0.00  0.00     0.057 C 
ATOM      5  S1  non dame1      11.697  29.185  29.379  0.00  0.00    -0.074 SA
ATOM      6  C5  non dame1      13.013  30.267  29.423  0.00  0.00     0.114 A 
ATOM      7  C6  non dame1      14.210  29.649  29.750  0.00  0.00     0.053 A 
ATOM      8  C7  non dame1      15.317  30.505  29.800  0.00  0.00     0.143 A 
ATOM      9  N2  non dame1      15.189  31.818  29.493  0.00  0.00    -0.223 NA
ATOM     10  C14 non dame1      13.963  32.271  29.206  0.00  0.00     0.236 A 
ATOM     11  N3  non dame1      12.827  31.570  29.147  0.00  0.00    -0.234 NA
ENDROOT
BRANCH   8  12
ATOM     12  N1  non dame1      16.596  29.963  30.184  0.00  0.00    -0.340 N 
ATOM     13  H7  non dame1      16.753  29.683  31.141  0.00  0.00     0.167 HD
BRANCH  12  14
ATOM     14  C8  non dame1      17.650  29.822  29.196  0.00  0.00     0.033 A 
ATOM     15  C9  non dame1      18.832  30.572  29.310  0.00  0.00     0.029 A 
ATOM     16  C10 non dame1      19.843  30.445  28.350  0.00  0.00     0.002 A 
ATOM     17  C11 non dame1      19.686  29.568  27.274  0.00  0.00     0.000 A 
ATOM     18  C12 non dame1      18.511  28.816  27.165  0.00  0.00     0.002 A 
ATOM     19  C13 non dame1      17.498  28.934  28.119  0.00  0.00     0.029 A 
ENDBRANCH  12  14
ENDBRANCH   8  12
TORSDOF 2
ENDMDL
MODEL 70
REMARK VINA RESULT:      -0.0      0.000      0.000
REMARK NAME 24292405_Intermediate
REMARK  5 active torsions:
REMARK  status: ('A' for Active; 'I' for Inactive)
REMARK    1  A    between atoms: C3_3  and  C4_4 
REMARK    2  A    between atoms: C4_4  and  O2_6 
REMARK    3  A    between atoms: O2_6  and  C5_7 
REMARK    4  A    between atoms: C5_7  and  C6_8 
REMARK    5  A    between atoms: N1_14  and  C13_16 
ROOT
ATOM      1  C1  non dame1      11.582  30.376  28.496  0.00  0.00     0.022 C 
ATOM      2  C2  non dame1      11.232  31.304  29.651  0.00  0.00     0.037 C 
ATOM      3  C3  non dame1      11.986  30.687  30.820  0.00  0.00     0.186 C 
ATOM      4  N1  non dame1      11.994  29.263  30.533  0.00  0.00    -0.346 N 
ATOM      5  C12 non dame1      11.602  29.003  29.155  0.00  0.00     0.126 C 
ENDROOT
BRANCH   4   6
ATOM      6  C13 non dame1      12.331  28.182  31.426  0.00  0.00     0.170 A 
ATOM      7  N2  non dame1      12.004  28.212  32.670  0.00  0.00    -0.223 NA
ATOM      8  C14 non dame1      12.467  27.063  33.279  0.00  0.00     0.076 A 
ATOM      9  C15 non dame1      12.316  26.749  34.599  0.00  0.00    -0.007 A 
ATOM     10  C21 non dame1      13.131  26.182  32.453  0.00  0.00     0.085 A 
ATOM     11  C16 non dame1      12.832  25.543  35.106  0.00  0.00     0.015 A 
ATOM     12  C20 non dame1      11.643  27.627  35.465  0.00  0.00     0.015 A 
ATOM     13  C17 non dame1      12.666  25.216  36.456  0.00  0.00     0.020 A 
ATOM     14  C18 non dame1      11.990  26.089  37.312  0.00  0.00     0.011 A 
ATOM     15  C19 non dame1      11.481  27.292  36.810  0.00  0.00     0.020 A 
ATOM     16 Br1  non dame1      11.755  25.648  39.174  0.00  0.00    -0.051 Br
ATOM     17  S1  non dame1      13.179  26.818  30.864  0.00  0.00    -0.062 SA
ENDBRANCH   4   6
BRANCH   3  18
ATOM     18  C4  non dame1      13.377  31.219  30.890  0.00  0.00     0.282 C 
ATOM     19  O1  non dame1      13.650  32.288  30.364  0.00  0.00    -0.263 OA
BRANCH  18  20
ATOM     20  O2  non dame1      14.340  30.518  31.536  0.00  0.00    -0.315 OA
BRANCH  20  21
ATOM     21  C5  non dame1      14.450  30.985  32.871  0.00  0.00     0.217 C 
BRANCH  21  22
ATOM     22  C6  non dame1      14.920  29.880  33.746  0.00  0.00    -0.034 A 
ATOM     23  C7  non dame1      14.611  29.879  35.116  0.00  0.00     0.009 A 
ATOM     24  C8  non dame1      15.064  28.844  35.942  0.00  0.00     0.001 A 
ATOM     25  C9  non dame1      15.826  27.802  35.407  0.00  0.00     0.000 A 
ATOM     26  C10 non dame1      16.126  27.799  34.041  0.00  0.00     0.001 A 
ATOM     27  C11 non dame1      15.678  28.825  33.210  0.00  0.00     0.009 A 
ENDBRANCH  21  22
ENDBRANCH  20  21
ENDBRANCH  18  20
ENDBRANCH   3  18
TORSDOF 5
ENDMDL
MODEL 71
REMARK VINA RESULT:      -0.0      9.973     12.810
REMARK NAME 24292405_Intermediate
REMARK  5 active torsions:
REMARK  status: ('A' for Active; 'I' for Inactive)
REMARK    1  A    between atoms: C3_3  and  C4_4 
REMARK    2  A    between atoms: C4_4  and  O2_6 
REMARK    3  A    between atoms: O2_6  and  C5_7 
REMARK    4  A    between atoms: C5_7  and  C6_8 
REMARK    5  A    between atoms: N1_14  and  C13_16 
ROOT
ATOM      1  C1  non dame1      19.575  26.292  38.553  0.00  0.00     0.022 C 
ATOM      2  C2  non dame1      19.151  25.029  37.816  0.00  0.00     0.037 C 
ATOM      3  C3  non dame1      20.458  24.536  37.213  0.00  0.00     0.186 C 
ATOM      4  N1  non dame1      21.214  25.747  36.949  0.00  0.00    -0.346 N 
ATOM      5  C12 non dame1      20.622  26.893  37.626  0.00  0.00     0.126 C 
ENDROOT
BRANCH   4   6
ATOM      6  C13 non dame1      22.399  25.893  36.141  0.00  0.00     0.170 A 
ATOM      7  N2  non dame1      22.553  25.229  35.050  0.00  0.00    -0.223 NA
ATOM      8  C14 non dame1      23.778  25.554  34.500  0.00  0.00     0.076 A 
ATOM      9  C15 non dame1      24.290  25.040  33.345  0.00  0.00    -0.007 A 
ATOM     10  C21 non dame1      24.515  26.481  35.206  0.00  0.00     0.085 A 
ATOM     11  C16 non dame1      25.554  25.451  32.884  0.00  0.00     0.015 A 
ATOM     12  C20 non dame1      23.561  24.094  32.604  0.00  0.00     0.015 A 
ATOM     13  C17 non dame1      26.073  24.932  31.693  0.00  0.00     0.020 A 
ATOM     14  C18 non dame1      25.342  23.997  30.955  0.00  0.00     0.011 A 
ATOM     15  C19 non dame1      24.087  23.583  31.417  0.00  0.00     0.020 A 
ATOM     16 Br1  non dame1      26.048  23.277  29.313  0.00  0.00    -0.051 Br
ATOM     17  S1  non dame1      23.645  26.955  36.603  0.00  0.00    -0.062 SA
ENDBRANCH   4   6
BRANCH   3  18
ATOM     18  C4  non dame1      21.185  23.659  38.177  0.00  0.00     0.282 C 
ATOM     19  O1  non dame1      20.579  23.121  39.091  0.00  0.00    -0.263 OA
BRANCH  18  20
ATOM     20  O2  non dame1      22.519  23.461  38.039  0.00  0.00    -0.315 OA
BRANCH  20  21
ATOM     21  C5  non dame1      22.745  22.291  37.269  0.00  0.00     0.217 C 
BRANCH  21  22
ATOM     22  C6  non dame1      24.044  22.409  36.557  0.00  0.00    -0.034 A 
ATOM     23  C7  non dame1      25.050  23.253  37.055  0.00  0.00     0.009 A 
ATOM     24  C8  non dame1      26.269  23.374  36.377  0.00  0.00     0.001 A 
ATOM     25  C9  non dame1      26.494  22.652  35.202  0.00  0.00     0.000 A 
ATOM     26  C10 non dame1      25.495  21.805  34.712  0.00  0.00     0.001 A 
ATOM     27  C11 non dame1      24.278  21.678  35.381  0.00  0.00     0.009 A 
ENDBRANCH  21  22
ENDBRANCH  20  21
ENDBRANCH  18  20
ENDBRANCH   3  18
TORSDOF 5
ENDMDL
MODEL 72
REMARK VINA RESULT:      -0.0      8.723     11.581
REMARK NAME 24292405_Intermediate
REMARK  5 active torsions:
REMARK  status: ('A' for Active; 'I' for Inactive)
REMARK    1  A    between atoms: C3_3  and  C4_4 
REMARK    2  A    between atoms: C4_4  and  O2_6 
REMARK    3  A    between atoms: O2_6  and  C5_7 
REMARK    4  A    between atoms: C5_7  and  C6_8 
REMARK    5  A    between atoms: N1_14  and  C13_16 
ROOT
ATOM      1  C1  non dame1      24.969  25.132  40.514  0.00  0.00     0.022 C 
ATOM      2  C2  non dame1      24.227  26.451  40.353  0.00  0.00     0.037 C 
ATOM      3  C3  non dame1      22.769  26.035  40.472  0.00  0.00     0.186 C 
ATOM      4  N1  non dame1      22.731  24.691  39.922  0.00  0.00    -0.346 N 
ATOM      5  C12 non dame1      24.073  24.143  39.781  0.00  0.00     0.126 C 
ENDROOT
BRANCH   4   6
ATOM      6  C13 non dame1      21.572  23.924  39.539  0.00  0.00     0.170 A 
ATOM      7  N2  non dame1      20.554  24.479  38.980  0.00  0.00    -0.223 NA
ATOM      8  C14 non dame1      19.596  23.514  38.741  0.00  0.00     0.076 A 
ATOM      9  C15 non dame1      18.376  23.731  38.169  0.00  0.00    -0.007 A 
ATOM     10  C21 non dame1      19.936  22.235  39.126  0.00  0.00     0.085 A 
ATOM     11  C16 non dame1      17.481  22.664  37.977  0.00  0.00     0.015 A 
ATOM     12  C20 non dame1      18.002  25.025  37.766  0.00  0.00     0.015 A 
ATOM     13  C17 non dame1      16.236  22.886  37.378  0.00  0.00     0.020 A 
ATOM     14  C18 non dame1      15.870  24.171  36.972  0.00  0.00     0.011 A 
ATOM     15  C19 non dame1      16.758  25.235  37.170  0.00  0.00     0.020 A 
ATOM     16 Br1  non dame1      14.158  24.488  36.147  0.00  0.00    -0.051 Br
ATOM     17  S1  non dame1      21.506  22.247  39.811  0.00  0.00    -0.062 SA
ENDBRANCH   4   6
BRANCH   3  18
ATOM     18  C4  non dame1      22.336  26.033  41.900  0.00  0.00     0.282 C 
ATOM     19  O1  non dame1      22.958  26.683  42.728  0.00  0.00    -0.263 OA
BRANCH  18  20
ATOM     20  O2  non dame1      21.254  25.310  42.279  0.00  0.00    -0.315 OA
BRANCH  20  21
ATOM     21  C5  non dame1      20.100  26.134  42.244  0.00  0.00     0.217 C 
BRANCH  21  22
ATOM     22  C6  non dame1      18.900  25.296  41.987  0.00  0.00    -0.034 A 
ATOM     23  C7  non dame1      18.906  23.931  42.318  0.00  0.00     0.009 A 
ATOM     24  C8  non dame1      17.779  23.139  42.065  0.00  0.00     0.001 A 
ATOM     25  C9  non dame1      16.640  23.703  41.485  0.00  0.00     0.000 A 
ATOM     26  C10 non dame1      16.632  25.064  41.164  0.00  0.00     0.001 A 
ATOM     27  C11 non dame1      17.749  25.861  41.413  0.00  0.00     0.009 A 
ENDBRANCH  21  22
ENDBRANCH  20  21
ENDBRANCH  18  20
ENDBRANCH   3  18
TORSDOF 5
ENDMDL
MODEL 73
REMARK VINA RESULT:      -0.0      0.000      0.000
REMARK NAME 24785630_Intermediate
REMARK  7 active torsions:
REMARK  status: ('A' for Active; 'I' for Inactive)
REMARK    1  A    between atoms: C4_4  and  C5_5 
REMARK    2  A    between atoms: C5_5  and  O1_6 
REMARK    3  A    between atoms: C9_11  and  S1_13 
REMARK    4  A    between atoms: S1_13  and  C10_14 
REMARK    5  A    between atoms: C10_14  and  C11_15 
REMARK    6  A    between atoms: C11_15  and  O3_17 
REMARK    7  A    between atoms: O3_17  and  C12_18 
ROOT
ATOM      1  C1  non dame1      23.053  26.294  36.413  0.00  0.00     0.070 C 
ATOM      2  C2  non dame1      22.901  26.805  35.037  0.00  0.00     0.032 A 
ATOM      3  C3  non dame1      23.500  26.123  33.993  0.00  0.00     0.037 A 
ATOM      4  C4  non dame1      23.336  26.619  32.702  0.00  0.00    -0.010 A 
ATOM      5  C7  non dame1      22.596  27.794  32.530  0.00  0.00     0.074 A 
ATOM      6  C8  non dame1      22.424  28.348  31.240  0.00  0.00     0.023 C 
ATOM      7  N1  non dame1      22.252  28.901  29.949  0.00  0.00    -0.096 N 
ATOM      8  C9  non dame1      22.027  28.419  33.638  0.00  0.00     0.114 A 
ATOM      9  N2  non dame1      22.174  27.930  34.880  0.00  0.00    -0.245 NA
ENDROOT
BRANCH   4  10
ATOM     10  C5  non dame1      23.921  25.935  31.532  0.00  0.00     0.207 C 
BRANCH  10  11
ATOM     11  O1  non dame1      25.055  25.188  31.938  0.00  0.00    -0.391 OA
ATOM     12  C6  non dame1      26.040  25.230  30.917  0.00  0.00     0.201 C 
ENDBRANCH  10  11
ENDBRANCH   4  10
BRANCH   8  13
ATOM     13  S1  non dame1      21.082  29.888  33.469  0.00  0.00    -0.099 SA
BRANCH  13  14
ATOM     14  C10 non dame1      22.290  30.954  34.320  0.00  0.00     0.192 C 
BRANCH  14  15
ATOM     15  C11 non dame1      23.296  31.463  33.326  0.00  0.00     0.273 C 
ATOM     16  O2  non dame1      22.952  31.716  32.181  0.00  0.00    -0.264 OA
BRANCH  15  17
ATOM     17  O3  non dame1      24.587  31.643  33.700  0.00  0.00    -0.278 OA
BRANCH  17  18
ATOM     18  C12 non dame1      25.256  30.444  33.628  0.00  0.00     0.079 A 
ATOM     19  C13 non dame1      25.527  29.710  34.797  0.00  0.00     0.037 A 
ATOM     20  C14 non dame1      26.220  28.497  34.723  0.00  0.00     0.003 A 
ATOM     21  C15 non dame1      26.646  28.003  33.488  0.00  0.00     0.000 A 
ATOM     22  C16 non dame1      26.372  28.731  32.324  0.00  0.00     0.003 A 
ATOM     23  C17 non dame1      25.679  29.940  32.386  0.00  0.00     0.037 A 
ENDBRANCH  17  18
ENDBRANCH  15  17
ENDBRANCH  14  15
ENDBRANCH  13  14
ENDBRANCH   8  13
TORSDOF 7
ENDMDL
MODEL 74
REMARK VINA RESULT:      -0.0      7.084      9.604
REMARK NAME 24785630_Intermediate
REMARK  7 active torsions:
REMARK  status: ('A' for Active; 'I' for Inactive)
REMARK    1  A    between atoms: C4_4  and  C5_5 
REMARK    2  A    between atoms: C5_5  and  O1_6 
REMARK    3  A    between atoms: C9_11  and  S1_13 
REMARK    4  A    between atoms: S1_13  and  C10_14 
REMARK    5  A    between atoms: C10_14  and  C11_15 
REMARK    6  A    between atoms: C11_15  and  O3_17 
REMARK    7  A    between atoms: O3_17  and  C12_18 
ROOT
ATOM      1  C1  non dame1      17.926  30.973  31.770  0.00  0.00     0.070 C 
ATOM      2  C2  non dame1      17.488  29.876  30.885  0.00  0.00     0.032 A 
ATOM      3  C3  non dame1      16.306  30.009  30.179  0.00  0.00     0.037 A 
ATOM      4  C4  non dame1      15.918  28.965  29.342  0.00  0.00    -0.010 A 
ATOM      5  C7  non dame1      16.729  27.826  29.279  0.00  0.00     0.074 A 
ATOM      6  C8  non dame1      16.362  26.731  28.463  0.00  0.00     0.023 C 
ATOM      7  N1  non dame1      15.994  25.637  27.646  0.00  0.00    -0.096 N 
ATOM      8  C9  non dame1      17.905  27.775  30.026  0.00  0.00     0.114 A 
ATOM      9  N2  non dame1      18.284  28.790  30.820  0.00  0.00    -0.245 NA
ENDROOT
BRANCH   4  10
ATOM     10  C5  non dame1      14.685  29.039  28.536  0.00  0.00     0.207 C 
BRANCH  10  11
ATOM     11  O1  non dame1      13.762  29.916  29.160  0.00  0.00    -0.391 OA
ATOM     12  C6  non dame1      12.443  29.428  28.972  0.00  0.00     0.201 C 
ENDBRANCH  10  11
ENDBRANCH   4  10
BRANCH   8  13
ATOM     13  S1  non dame1      18.959  26.373  29.970  0.00  0.00    -0.099 SA
BRANCH  13  14
ATOM     14  C10 non dame1      18.630  25.857  31.687  0.00  0.00     0.192 C 
BRANCH  14  15
ATOM     15  C11 non dame1      17.418  24.969  31.719  0.00  0.00     0.273 C 
ATOM     16  O2  non dame1      17.195  24.204  30.793  0.00  0.00    -0.264 OA
BRANCH  15  17
ATOM     17  O3  non dame1      16.571  25.017  32.777  0.00  0.00    -0.278 OA
BRANCH  17  18
ATOM     18  C12 non dame1      15.692  26.061  32.613  0.00  0.00     0.079 A 
ATOM     19  C13 non dame1      15.873  27.262  33.323  0.00  0.00     0.037 A 
ATOM     20  C14 non dame1      14.970  28.318  33.165  0.00  0.00     0.003 A 
ATOM     21  C15 non dame1      13.881  28.190  32.299  0.00  0.00     0.000 A 
ATOM     22  C16 non dame1      13.703  26.998  31.589  0.00  0.00     0.003 A 
ATOM     23  C17 non dame1      14.600  25.939  31.737  0.00  0.00     0.037 A 
ENDBRANCH  17  18
ENDBRANCH  15  17
ENDBRANCH  14  15
ENDBRANCH  13  14
ENDBRANCH   8  13
TORSDOF 7
ENDMDL
MODEL 75
REMARK VINA RESULT:      -0.0      6.597      8.704
REMARK NAME 24785630_Intermediate
REMARK  7 active torsions:
REMARK  status: ('A' for Active; 'I' for Inactive)
REMARK    1  A    between atoms: C4_4  and  C5_5 
REMARK    2  A    between atoms: C5_5  and  O1_6 
REMARK    3  A    between atoms: C9_11  and  S1_13 
REMARK    4  A    between atoms: S1_13  and  C10_14 
REMARK    5  A    between atoms: C10_14  and  C11_15 
REMARK    6  A    between atoms: C11_15  and  O3_17 
REMARK    7  A    between atoms: O3_17  and  C12_18 
ROOT
ATOM      1  C1  non dame1      13.875  30.782  32.771  0.00  0.00     0.070 C 
ATOM      2  C2  non dame1      15.191  30.252  33.182  0.00  0.00     0.032 A 
ATOM      3  C3  non dame1      15.992  29.632  32.240  0.00  0.00     0.037 A 
ATOM      4  C4  non dame1      17.234  29.149  32.649  0.00  0.00    -0.010 A 
ATOM      5  C7  non dame1      17.594  29.292  33.993  0.00  0.00     0.074 A 
ATOM      6  C8  non dame1      18.834  28.794  34.458  0.00  0.00     0.023 C 
ATOM      7  N1  non dame1      20.073  28.296  34.922  0.00  0.00    -0.096 N 
ATOM      8  C9  non dame1      16.724  29.930  34.876  0.00  0.00     0.114 A 
ATOM      9  N2  non dame1      15.535  30.409  34.476  0.00  0.00    -0.245 NA
ENDROOT
BRANCH   4  10
ATOM     10  C5  non dame1      18.159  28.497  31.701  0.00  0.00     0.207 C 
BRANCH  10  11
ATOM     11  O1  non dame1      17.420  27.933  30.630  0.00  0.00    -0.391 OA
ATOM     12  C6  non dame1      18.031  26.719  30.222  0.00  0.00     0.201 C 
ENDBRANCH  10  11
ENDBRANCH   4  10
BRANCH   8  13
ATOM     13  S1  non dame1      17.138  30.143  36.568  0.00  0.00    -0.099 SA
BRANCH  13  14
ATOM     14  C10 non dame1      15.867  28.995  37.189  0.00  0.00     0.192 C 
BRANCH  14  15
ATOM     15  C11 non dame1      16.420  27.597  37.208  0.00  0.00     0.273 C 
ATOM     16  O2  non dame1      17.599  27.409  37.469  0.00  0.00    -0.264 OA
BRANCH  15  17
ATOM     17  O3  non dame1      15.611  26.545  36.937  0.00  0.00    -0.278 OA
BRANCH  17  18
ATOM     18  C12 non dame1      15.504  26.387  35.575  0.00  0.00     0.079 A 
ATOM     19  C13 non dame1      14.353  26.825  34.897  0.00  0.00     0.037 A 
ATOM     20  C14 non dame1      14.241  26.652  33.513  0.00  0.00     0.003 A 
ATOM     21  C15 non dame1      15.273  26.046  32.793  0.00  0.00     0.000 A 
ATOM     22  C16 non dame1      16.421  25.614  33.467  0.00  0.00     0.003 A 
ATOM     23  C17 non dame1      16.544  25.785  34.846  0.00  0.00     0.037 A 
ENDBRANCH  17  18
ENDBRANCH  15  17
ENDBRANCH  14  15
ENDBRANCH  13  14
ENDBRANCH   8  13
TORSDOF 7
ENDMDL
MODEL 76
REMARK VINA RESULT:      -0.0      0.000      0.000
REMARK NAME 57265530_Intermediate
REMARK  6 active torsions:
REMARK  status: ('A' for Active; 'I' for Inactive)
REMARK    1  A    between atoms: C2_2  and  N1_3 
REMARK    2  A    between atoms: C9_10  and  S1_15 
REMARK    3  A    between atoms: S1_15  and  N2_16 
REMARK    4  A    between atoms: C17_20  and  C19_22 
REMARK    5  A    between atoms: C19_22  and  O2_24 
REMARK    6  A    between atoms: O2_24  and  C20_25 
ROOT
ATOM      1  N1  non dame1      24.875  28.922  35.816  0.00  0.00    -0.313 N 
ATOM      2  C3  non dame1      24.492  30.259  35.775  0.00  0.00     0.259 A 
ATOM      3  C4  non dame1      23.025  30.235  35.599  0.00  0.00     0.045 A 
ATOM      4  C5  non dame1      22.106  31.256  35.481  0.00  0.00     0.018 A 
ATOM      5  C6  non dame1      20.760  30.895  35.329  0.00  0.00     0.002 A 
ATOM      6  C7  non dame1      20.367  29.536  35.305  0.00  0.00     0.014 A 
ATOM      7  C8  non dame1      21.319  28.484  35.433  0.00  0.00     0.000 A 
ATOM      8  C9  non dame1      21.174  27.067  35.451  0.00  0.00     0.086 A 
ATOM      9  C10 non dame1      22.302  26.215  35.588  0.00  0.00     0.028 A 
ATOM     10  C11 non dame1      23.598  26.739  35.719  0.00  0.00     0.032 A 
ATOM     11  C12 non dame1      23.737  28.110  35.707  0.00  0.00     0.049 A 
ATOM     12  C13 non dame1      22.635  28.919  35.571  0.00  0.00     0.018 A 
ATOM     13  O5  non dame1      25.170  31.261  35.860  0.00  0.00    -0.267 OA
ENDROOT
BRANCH   8  14
ATOM     14  S1  non dame1      19.562  26.378  35.301  0.00  0.00     0.244 S 
ATOM     15  O3  non dame1      19.667  24.721  35.279  0.00  0.00    -0.206 OA
ATOM     16  O4  non dame1      18.862  26.907  33.890  0.00  0.00    -0.206 OA
BRANCH  14  17
ATOM     17  N2  non dame1      18.638  26.854  36.586  0.00  0.00    -0.206 NA
ATOM     18  C14 non dame1      18.781  25.850  37.678  0.00  0.00     0.107 C 
ATOM     19  C15 non dame1      18.223  24.494  37.266  0.00  0.00     0.016 C 
ATOM     20  C16 non dame1      16.765  24.612  36.833  0.00  0.00     0.017 C 
ATOM     21  C17 non dame1      16.606  25.659  35.737  0.00  0.00     0.100 C 
ATOM     22  C18 non dame1      17.225  26.995  36.135  0.00  0.00     0.122 C 
BRANCH  21  23
ATOM     23  C19 non dame1      17.277  25.168  34.497  0.00  0.00     0.264 C 
ATOM     24  O1  non dame1      17.362  25.895  33.519  0.00  0.00    -0.265 OA
BRANCH  23  25
ATOM     25  O2  non dame1      17.791  23.915  34.457  0.00  0.00    -0.322 OA
BRANCH  25  26
ATOM     26  C20 non dame1      17.218  23.201  33.375  0.00  0.00     0.174 C 
ATOM     27  C21 non dame1      16.034  22.400  33.869  0.00  0.00     0.034 C 
ENDBRANCH  25  26
ENDBRANCH  23  25
ENDBRANCH  21  23
ENDBRANCH  14  17
ENDBRANCH   8  14
BRANCH   1  28
ATOM     28  C2  non dame1      26.178  28.356  35.944  0.00  0.00     0.128 C 
ATOM     29  C1  non dame1      26.843  28.309  34.586  0.00  0.00     0.027 C 
ENDBRANCH   1  28
TORSDOF 6
ENDMDL
MODEL 77
REMARK VINA RESULT:      -0.0      3.565      8.118
REMARK NAME 57265530_Intermediate
REMARK  6 active torsions:
REMARK  status: ('A' for Active; 'I' for Inactive)
REMARK    1  A    between atoms: C2_2  and  N1_3 
REMARK    2  A    between atoms: C9_10  and  S1_15 
REMARK    3  A    between atoms: S1_15  and  N2_16 
REMARK    4  A    between atoms: C17_20  and  C19_22 
REMARK    5  A    between atoms: C19_22  and  O2_24 
REMARK    6  A    between atoms: O2_24  and  C20_25 
ROOT
ATOM      1  N1  non dame1      15.447  23.484  32.697  0.00  0.00    -0.313 N 
ATOM      2  C3  non dame1      16.041  22.789  31.648  0.00  0.00     0.259 A 
ATOM      3  C4  non dame1      17.485  22.775  31.962  0.00  0.00     0.045 A 
ATOM      4  C5  non dame1      18.560  22.243  31.282  0.00  0.00     0.018 A 
ATOM      5  C6  non dame1      19.826  22.396  31.861  0.00  0.00     0.002 A 
ATOM      6  C7  non dame1      19.989  23.065  33.097  0.00  0.00     0.014 A 
ATOM      7  C8  non dame1      18.875  23.609  33.800  0.00  0.00     0.000 A 
ATOM      8  C9  non dame1      18.780  24.300  35.042  0.00  0.00     0.086 A 
ATOM      9  C10 non dame1      17.528  24.755  35.535  0.00  0.00     0.028 A 
ATOM     10  C11 non dame1      16.340  24.531  34.822  0.00  0.00     0.032 A 
ATOM     11  C12 non dame1      16.432  23.856  33.623  0.00  0.00     0.049 A 
ATOM     12  C13 non dame1      17.651  23.426  33.160  0.00  0.00     0.018 A 
ATOM     13  O5  non dame1      15.534  22.285  30.669  0.00  0.00    -0.267 OA
ENDROOT
BRANCH   8  14
ATOM     14  S1  non dame1      20.249  24.588  35.967  0.00  0.00     0.244 S 
ATOM     15  O3  non dame1      19.884  25.466  37.328  0.00  0.00    -0.206 OA
ATOM     16  O4  non dame1      21.334  25.435  35.036  0.00  0.00    -0.206 OA
BRANCH  14  17
ATOM     17  N2  non dame1      20.914  23.141  36.407  0.00  0.00    -0.206 NA
ATOM     18  C14 non dame1      20.360  22.741  37.731  0.00  0.00     0.107 C 
ATOM     19  C15 non dame1      20.770  23.718  38.826  0.00  0.00     0.016 C 
ATOM     20  C16 non dame1      22.288  23.852  38.897  0.00  0.00     0.017 C 
ATOM     21  C17 non dame1      22.865  24.232  37.538  0.00  0.00     0.100 C 
ATOM     22  C18 non dame1      22.397  23.284  36.439  0.00  0.00     0.122 C 
BRANCH  21  23
ATOM     23  C19 non dame1      22.430  25.618  37.198  0.00  0.00     0.264 C 
ATOM     24  O1  non dame1      22.692  26.089  36.102  0.00  0.00    -0.265 OA
BRANCH  23  25
ATOM     25  O2  non dame1      21.743  26.353  38.106  0.00  0.00    -0.322 OA
BRANCH  25  26
ATOM     26  C20 non dame1      22.424  27.574  38.340  0.00  0.00     0.174 C 
ATOM     27  C21 non dame1      23.323  27.426  39.547  0.00  0.00     0.034 C 
ENDBRANCH  25  26
ENDBRANCH  23  25
ENDBRANCH  21  23
ENDBRANCH  14  17
ENDBRANCH   8  14
BRANCH   1  28
ATOM     28  C2  non dame1      14.076  23.820  32.900  0.00  0.00     0.128 C 
ATOM     29  C1  non dame1      13.746  25.080  32.128  0.00  0.00     0.027 C 
ENDBRANCH   1  28
TORSDOF 6
ENDMDL
MODEL 78
REMARK VINA RESULT:      -0.0      5.586      8.370
REMARK NAME 57265530_Intermediate
REMARK  6 active torsions:
REMARK  status: ('A' for Active; 'I' for Inactive)
REMARK    1  A    between atoms: C2_2  and  N1_3 
REMARK    2  A    between atoms: C9_10  and  S1_15 
REMARK    3  A    between atoms: S1_15  and  N2_16 
REMARK    4  A    between atoms: C17_20  and  C19_22 
REMARK    5  A    between atoms: C19_22  and  O2_24 
REMARK    6  A    between atoms: O2_24  and  C20_25 
ROOT
ATOM      1  N1  non dame1      17.264  22.941  41.336  0.00  0.00    -0.313 N 
ATOM      2  C3  non dame1      17.250  21.573  41.087  0.00  0.00     0.259 A 
ATOM      3  C4  non dame1      16.787  21.440  39.689  0.00  0.00     0.045 A 
ATOM      4  C5  non dame1      16.569  20.327  38.905  0.00  0.00     0.018 A 
ATOM      5  C6  non dame1      16.128  20.543  37.592  0.00  0.00     0.002 A 
ATOM      6  C7  non dame1      15.923  21.852  37.096  0.00  0.00     0.014 A 
ATOM      7  C8  non dame1      16.156  22.999  37.908  0.00  0.00     0.000 A 
ATOM      8  C9  non dame1      16.037  24.393  37.641  0.00  0.00     0.086 A 
ATOM      9  C10 non dame1      16.328  25.360  38.639  0.00  0.00     0.028 A 
ATOM     10  C11 non dame1      16.751  24.977  39.921  0.00  0.00     0.032 A 
ATOM     11  C12 non dame1      16.871  23.628  40.178  0.00  0.00     0.049 A 
ATOM     12  C13 non dame1      16.583  22.706  39.201  0.00  0.00     0.018 A 
ATOM     13  O5  non dame1      17.543  20.651  41.817  0.00  0.00    -0.267 OA
ENDROOT
BRANCH   8  14
ATOM     14  S1  non dame1      15.520  24.908  36.039  0.00  0.00     0.244 S 
ATOM     15  O3  non dame1      15.399  26.564  36.001  0.00  0.00    -0.206 OA
ATOM     16  O4  non dame1      14.041  24.236  35.691  0.00  0.00    -0.206 OA
BRANCH  14  17
ATOM     17  N2  non dame1      16.628  24.411  34.918  0.00  0.00    -0.206 NA
ATOM     18  C14 non dame1      17.651  25.481  34.747  0.00  0.00     0.107 C 
ATOM     19  C15 non dame1      17.041  26.751  34.169  0.00  0.00     0.016 C 
ATOM     20  C16 non dame1      16.337  26.466  32.846  0.00  0.00     0.017 C 
ATOM     21  C17 non dame1      15.309  25.351  33.006  0.00  0.00     0.100 C 
ATOM     22  C18 non dame1      15.917  24.107  33.643  0.00  0.00     0.122 C 
BRANCH  21  23
ATOM     23  C19 non dame1      14.195  25.840  33.869  0.00  0.00     0.264 C 
ATOM     24  O1  non dame1      13.309  25.075  34.217  0.00  0.00    -0.265 OA
BRANCH  23  25
ATOM     25  O2  non dame1      14.167  27.135  34.269  0.00  0.00    -0.322 OA
BRANCH  25  26
ATOM     26  C20 non dame1      12.942  27.727  33.873  0.00  0.00     0.174 C 
ATOM     27  C21 non dame1      13.126  28.426  32.544  0.00  0.00     0.034 C 
ENDBRANCH  25  26
ENDBRANCH  23  25
ENDBRANCH  21  23
ENDBRANCH  14  17
ENDBRANCH   8  14
BRANCH   1  28
ATOM     28  C2  non dame1      17.602  23.641  42.532  0.00  0.00     0.128 C 
ATOM     29  C1  non dame1      16.406  23.665  43.458  0.00  0.00     0.027 C 
ENDBRANCH   1  28
TORSDOF 6
ENDMDL
MODEL 79
REMARK VINA RESULT:      -0.0      0.000      0.000
REMARK NAME 14738949_Intermediate
REMARK  7 active torsions:
REMARK  status: ('A' for Active; 'I' for Inactive)
REMARK    1  A    between atoms: C2_2  and  C3_3 
REMARK    2  A    between atoms: C7_7  and  N1_9 
REMARK       I    between atoms: N1_9  and  C9_10 
REMARK    3  A    between atoms: C9_10  and  C10_11 
REMARK    4  A    between atoms: C10_11  and  N2_12 
REMARK    5  A    between atoms: N2_12  and  S1_14 
REMARK    6  A    between atoms: S1_14  and  C12_15 
REMARK    7  A    between atoms: C15_18  and  O1_22 
ROOT
ATOM      1  C10 non dame1      15.748  28.954  41.210  0.00  0.00     0.210 C 
ENDROOT
BRANCH   1   2
ATOM      2  C9  non dame1      15.527  27.737  40.375  0.00  0.00     0.236 C 
ATOM      3  N1  non dame1      15.776  27.776  39.030  0.00  0.00    -0.326 N 
ATOM      4  H8  non dame1      16.111  28.633  38.611  0.00  0.00     0.169 HD
ATOM      5  O4  non dame1      15.121  26.707  40.892  0.00  0.00    -0.272 OA
BRANCH   3   6
ATOM      6  C7  non dame1      15.569  26.648  38.254  0.00  0.00     0.035 A 
ATOM      7  C6  non dame1      14.342  26.481  37.602  0.00  0.00     0.029 A 
ATOM      8  C5  non dame1      14.127  25.343  36.820  0.00  0.00     0.003 A 
ATOM      9  C4  non dame1      15.132  24.379  36.688  0.00  0.00     0.015 A 
ATOM     10  C3  non dame1      16.355  24.562  37.340  0.00  0.00     0.011 A 
ATOM     11  C8  non dame1      16.577  25.691  38.130  0.00  0.00     0.044 A 
BRANCH  10  12
ATOM     12  C2  non dame1      17.394  23.567  37.188  0.00  0.00     0.155 C 
ATOM     13  C1  non dame1      18.481  23.770  36.187  0.00  0.00     0.096 C 
ATOM     14  O5  non dame1      17.382  22.561  37.881  0.00  0.00    -0.293 OA
ENDBRANCH  10  12
ENDBRANCH   3   6
ENDBRANCH   1   2
BRANCH   1  15
ATOM     15  N2  non dame1      16.902  28.748  42.066  0.00  0.00    -0.202 NA
ATOM     16  C11 non dame1      16.818  29.635  43.212  0.00  0.00     0.130 C 
BRANCH  15  17
ATOM     17  S1  non dame1      18.281  29.075  41.217  0.00  0.00     0.243 S 
ATOM     18  O2  non dame1      19.396  29.787  42.220  0.00  0.00    -0.206 OA
ATOM     19  O3  non dame1      17.929  30.103  39.961  0.00  0.00    -0.206 OA
BRANCH  17  20
ATOM     20  C12 non dame1      18.948  27.565  40.573  0.00  0.00     0.075 A 
ATOM     21  C13 non dame1      18.820  26.368  41.296  0.00  0.00     0.027 A 
ATOM     22  C14 non dame1      19.355  25.178  40.793  0.00  0.00     0.039 A 
ATOM     23  C15 non dame1      20.021  25.171  39.564  0.00  0.00     0.074 A 
ATOM     24  C16 non dame1      20.144  26.362  38.840  0.00  0.00    -0.027 A 
ATOM     25  C17 non dame1      20.845  26.349  37.541  0.00  0.00     0.051 C 
ATOM     26  C18 non dame1      19.609  27.554  39.332  0.00  0.00     0.034 A 
BRANCH  23  27
ATOM     27  O1  non dame1      20.551  24.013  39.069  0.00  0.00    -0.355 OA
ATOM     28  C19 non dame1      20.249  22.940  39.947  0.00  0.00     0.210 C 
ENDBRANCH  23  27
ENDBRANCH  17  20
ENDBRANCH  15  17
ENDBRANCH   1  15
TORSDOF 7
ENDMDL
MODEL 80
REMARK VINA RESULT:      -0.0      4.000      5.534
REMARK NAME 14738949_Intermediate
REMARK  7 active torsions:
REMARK  status: ('A' for Active; 'I' for Inactive)
REMARK    1  A    between atoms: C2_2  and  C3_3 
REMARK    2  A    between atoms: C7_7  and  N1_9 
REMARK       I    between atoms: N1_9  and  C9_10 
REMARK    3  A    between atoms: C9_10  and  C10_11 
REMARK    4  A    between atoms: C10_11  and  N2_12 
REMARK    5  A    between atoms: N2_12  and  S1_14 
REMARK    6  A    between atoms: S1_14  and  C12_15 
REMARK    7  A    between atoms: C15_18  and  O1_22 
ROOT
ATOM      1  C10 non dame1      13.340  27.728  36.371  0.00  0.00     0.210 C 
ENDROOT
BRANCH   1   2
ATOM      2  C9  non dame1      13.042  26.429  35.700  0.00  0.00     0.236 C 
ATOM      3  N1  non dame1      14.032  25.764  35.027  0.00  0.00    -0.326 N 
ATOM      4  H8  non dame1      14.961  26.159  34.992  0.00  0.00     0.169 HD
ATOM      5  O4  non dame1      11.915  25.961  35.749  0.00  0.00    -0.272 OA
BRANCH   3   6
ATOM      6  C7  non dame1      13.755  24.559  34.403  0.00  0.00     0.035 A 
ATOM      7  C6  non dame1      13.403  24.555  33.048  0.00  0.00     0.029 A 
ATOM      8  C5  non dame1      13.121  23.343  32.414  0.00  0.00     0.003 A 
ATOM      9  C4  non dame1      13.192  22.141  33.127  0.00  0.00     0.015 A 
ATOM     10  C3  non dame1      13.551  22.160  34.477  0.00  0.00     0.011 A 
ATOM     11  C8  non dame1      13.827  23.366  35.123  0.00  0.00     0.044 A 
BRANCH  10  12
ATOM     12  C2  non dame1      13.635  20.913  35.205  0.00  0.00     0.155 C 
ATOM     13  C1  non dame1      14.957  20.245  35.391  0.00  0.00     0.096 C 
ATOM     14  O5  non dame1      12.625  20.406  35.668  0.00  0.00    -0.293 OA
ENDBRANCH  10  12
ENDBRANCH   3   6
ENDBRANCH   1   2
BRANCH   1  15
ATOM     15  N2  non dame1      13.314  27.545  37.810  0.00  0.00    -0.202 NA
ATOM     16  C11 non dame1      13.066  28.821  38.455  0.00  0.00     0.130 C 
BRANCH  15  17
ATOM     17  S1  non dame1      14.769  26.946  38.315  0.00  0.00     0.243 S 
ATOM     18  O2  non dame1      15.154  27.596  39.793  0.00  0.00    -0.206 OA
ATOM     19  O3  non dame1      15.944  27.342  37.211  0.00  0.00    -0.206 OA
BRANCH  17  20
ATOM     20  C12 non dame1      14.663  25.183  38.455  0.00  0.00     0.075 A 
ATOM     21  C13 non dame1      13.462  24.574  38.854  0.00  0.00     0.027 A 
ATOM     22  C14 non dame1      13.380  23.183  38.975  0.00  0.00     0.039 A 
ATOM     23  C15 non dame1      14.496  22.387  38.698  0.00  0.00     0.074 A 
ATOM     24  C16 non dame1      15.692  22.993  38.295  0.00  0.00    -0.027 A 
ATOM     25  C17 non dame1      16.866  22.149  38.001  0.00  0.00     0.051 C 
ATOM     26  C18 non dame1      15.780  24.380  38.168  0.00  0.00     0.034 A 
BRANCH  23  27
ATOM     27  O1  non dame1      14.426  21.029  38.819  0.00  0.00    -0.355 OA
ATOM     28  C19 non dame1      13.107  20.652  39.180  0.00  0.00     0.210 C 
ENDBRANCH  23  27
ENDBRANCH  17  20
ENDBRANCH  15  17
ENDBRANCH   1  15
TORSDOF 7
ENDMDL
MODEL 81
REMARK VINA RESULT:      -0.0      7.199      8.967
REMARK NAME 14738949_Intermediate
REMARK  7 active torsions:
REMARK  status: ('A' for Active; 'I' for Inactive)
REMARK    1  A    between atoms: C2_2  and  C3_3 
REMARK    2  A    between atoms: C7_7  and  N1_9 
REMARK       I    between atoms: N1_9  and  C9_10 
REMARK    3  A    between atoms: C9_10  and  C10_11 
REMARK    4  A    between atoms: C10_11  and  N2_12 
REMARK    5  A    between atoms: N2_12  and  S1_14 
REMARK    6  A    between atoms: S1_14  and  C12_15 
REMARK    7  A    between atoms: C15_18  and  O1_22 
ROOT
ATOM      1  C10 non dame1      25.885  23.702  38.859  0.00  0.00     0.210 C 
ENDROOT
BRANCH   1   2
ATOM      2  C9  non dame1      24.867  23.029  38.000  0.00  0.00     0.236 C 
ATOM      3  N1  non dame1      23.693  23.666  37.703  0.00  0.00    -0.326 N 
ATOM      4  H8  non dame1      23.525  24.593  38.069  0.00  0.00     0.169 HD
ATOM      5  O4  non dame1      25.082  21.908  37.564  0.00  0.00    -0.272 OA
BRANCH   3   6
ATOM      6  C7  non dame1      22.747  23.041  36.907  0.00  0.00     0.035 A 
ATOM      7  C6  non dame1      21.718  22.312  37.512  0.00  0.00     0.029 A 
ATOM      8  C5  non dame1      20.762  21.677  36.714  0.00  0.00     0.003 A 
ATOM      9  C4  non dame1      20.834  21.773  35.320  0.00  0.00     0.015 A 
ATOM     10  C3  non dame1      21.863  22.510  34.730  0.00  0.00     0.011 A 
ATOM     11  C8  non dame1      22.828  23.141  35.518  0.00  0.00     0.044 A 
BRANCH  10  12
ATOM     12  C2  non dame1      21.923  22.615  33.289  0.00  0.00     0.155 C 
ATOM     13  C1  non dame1      21.366  23.818  32.604  0.00  0.00     0.096 C 
ATOM     14  O5  non dame1      22.431  21.718  32.631  0.00  0.00    -0.293 OA
ENDBRANCH  10  12
ENDBRANCH   3   6
ENDBRANCH   1   2
BRANCH   1  15
ATOM     15  N2  non dame1      27.032  24.071  38.049  0.00  0.00    -0.202 NA
ATOM     16  C11 non dame1      28.197  24.217  38.902  0.00  0.00     0.130 C 
BRANCH  15  17
ATOM     17  S1  non dame1      26.726  25.502  37.283  0.00  0.00     0.243 S 
ATOM     18  O2  non dame1      28.123  26.396  37.200  0.00  0.00    -0.206 OA
ATOM     19  O3  non dame1      25.575  26.349  38.128  0.00  0.00    -0.206 OA
BRANCH  17  20
ATOM     20  C12 non dame1      26.135  25.178  35.645  0.00  0.00     0.075 A 
ATOM     21  C13 non dame1      26.610  24.069  34.925  0.00  0.00     0.027 A 
ATOM     22  C14 non dame1      26.152  23.819  33.628  0.00  0.00     0.039 A 
ATOM     23  C15 non dame1      25.215  24.672  33.037  0.00  0.00     0.074 A 
ATOM     24  C16 non dame1      24.737  25.774  33.755  0.00  0.00    -0.027 A 
ATOM     25  C17 non dame1      23.745  26.670  33.129  0.00  0.00     0.051 C 
ATOM     26  C18 non dame1      25.186  26.029  35.052  0.00  0.00     0.034 A 
BRANCH  23  27
ATOM     27  O1  non dame1      24.766  24.437  31.769  0.00  0.00    -0.355 OA
ATOM     28  C19 non dame1      25.343  23.238  31.276  0.00  0.00     0.210 C 
ENDBRANCH  23  27
ENDBRANCH  17  20
ENDBRANCH  15  17
ENDBRANCH   1  15
TORSDOF 7
ENDMDL
MODEL 82
REMARK VINA RESULT:      -0.0      0.000      0.000
REMARK NAME 24390232_Intermediate
REMARK  8 active torsions:
REMARK  status: ('A' for Active; 'I' for Inactive)
REMARK    1  A    between atoms: C2_2  and  C3_3 
REMARK    2  A    between atoms: C6_6  and  O1_9 
REMARK    3  A    between atoms: O1_9  and  C9_10 
REMARK    4  A    between atoms: C9_10  and  C10_11 
REMARK       I    between atoms: C10_11  and  N1_12 
REMARK    5  A    between atoms: N1_12  and  C11_13 
REMARK    6  A    between atoms: N1_12  and  C18_21 
REMARK    7  A    between atoms: C11_13  and  C12_14 
REMARK    8  A    between atoms: C18_21  and  C19_22 
ROOT
ATOM      1  C10 non dame1      17.397  28.392  38.624  0.00  0.00     0.244 C 
ATOM      2  N1  non dame1      16.811  27.157  38.571  0.00  0.00    -0.340 N 
ATOM      3  O3  non dame1      16.791  29.336  39.111  0.00  0.00    -0.271 OA
ENDROOT
BRANCH   2   4
ATOM      4  C11 non dame1      15.483  26.969  39.087  0.00  0.00     0.166 C 
BRANCH   4   5
ATOM      5  C12 non dame1      14.584  26.529  37.989  0.00  0.00    -0.018 A 
ATOM      6  C13 non dame1      14.249  27.411  36.949  0.00  0.00     0.010 A 
ATOM      7  C14 non dame1      13.391  26.999  35.921  0.00  0.00     0.001 A 
ATOM      8  C15 non dame1      12.867  25.705  35.921  0.00  0.00     0.002 A 
ATOM      9  C16 non dame1      13.205  24.823  36.955  0.00  0.00     0.024 A 
ATOM     10  C17 non dame1      14.059  25.225  37.982  0.00  0.00     0.042 A 
ATOM     11 Cl1  non dame1      14.491  24.117  39.276  0.00  0.00    -0.084 Cl
ENDBRANCH   4   5
ENDBRANCH   2   4
BRANCH   2  12
ATOM     12  C18 non dame1      17.521  26.048  38.000  0.00  0.00     0.191 C 
BRANCH  12  13
ATOM     13  C19 non dame1      17.934  25.132  39.064  0.00  0.00     0.070 A 
ATOM     14  C20 non dame1      18.564  23.987  38.827  0.00  0.00     0.036 A 
ATOM     15  C21 non dame1      18.768  23.417  40.105  0.00  0.00     0.027 A 
ATOM     16  C22 non dame1      18.239  24.302  41.028  0.00  0.00     0.142 A 
ATOM     17  O2  non dame1      17.709  25.379  40.367  0.00  0.00    -0.325 OA
ENDBRANCH  12  13
ENDBRANCH   2  12
BRANCH   1  18
ATOM     18  C9  non dame1      18.776  28.588  38.088  0.00  0.00     0.278 C 
BRANCH  18  19
ATOM     19  O1  non dame1      19.637  29.001  39.135  0.00  0.00    -0.342 OA
BRANCH  19  20
ATOM     20  C6  non dame1      20.323  27.921  39.615  0.00  0.00     0.069 A 
ATOM     21  C5  non dame1      20.336  27.641  40.984  0.00  0.00     0.037 A 
ATOM     22  C4  non dame1      21.039  26.532  41.469  0.00  0.00     0.010 A 
ATOM     23  C3  non dame1      21.724  25.704  40.577  0.00  0.00    -0.058 A 
ATOM     24  C8  non dame1      21.724  25.980  39.209  0.00  0.00     0.010 A 
ATOM     25  C7  non dame1      21.019  27.087  38.734  0.00  0.00     0.037 A 
BRANCH  23  26
ATOM     26  C2  non dame1      22.451  24.530  41.095  0.00  0.00     0.034 C 
ATOM     27  C1  non dame1      21.770  24.028  42.350  0.00  0.00     0.010 C 
ENDBRANCH  23  26
ENDBRANCH  19  20
ENDBRANCH  18  19
ENDBRANCH   1  18
TORSDOF 8
ENDMDL
MODEL 83
REMARK VINA RESULT:       0.0      4.308      6.577
REMARK NAME 24390232_Intermediate
REMARK  8 active torsions:
REMARK  status: ('A' for Active; 'I' for Inactive)
REMARK    1  A    between atoms: C2_2  and  C3_3 
REMARK    2  A    between atoms: C6_6  and  O1_9 
REMARK    3  A    between atoms: O1_9  and  C9_10 
REMARK    4  A    between atoms: C9_10  and  C10_11 
REMARK       I    between atoms: C10_11  and  N1_12 
REMARK    5  A    between atoms: N1_12  and  C11_13 
REMARK    6  A    between atoms: N1_12  and  C18_21 
REMARK    7  A    between atoms: C11_13  and  C12_14 
REMARK    8  A    between atoms: C18_21  and  C19_22 
ROOT
ATOM      1  C10 non dame1      20.418  25.769  37.451  0.00  0.00     0.244 C 
ATOM      2  N1  non dame1      19.634  24.648  37.439  0.00  0.00    -0.340 N 
ATOM      3  O3  non dame1      20.112  26.722  38.153  0.00  0.00    -0.271 OA
ENDROOT
BRANCH   2   4
ATOM      4  C11 non dame1      18.450  24.591  38.252  0.00  0.00     0.166 C 
BRANCH   4   5
ATOM      5  C12 non dame1      18.560  23.458  39.206  0.00  0.00    -0.018 A 
ATOM      6  C13 non dame1      19.488  23.505  40.260  0.00  0.00     0.010 A 
ATOM      7  C14 non dame1      19.600  22.430  41.151  0.00  0.00     0.001 A 
ATOM      8  C15 non dame1      18.785  21.307  41.003  0.00  0.00     0.002 A 
ATOM      9  C16 non dame1      17.855  21.262  39.957  0.00  0.00     0.024 A 
ATOM     10  C17 non dame1      17.737  22.328  39.065  0.00  0.00     0.042 A 
ATOM     11 Cl1  non dame1      16.565  22.276  37.755  0.00  0.00    -0.084 Cl
ENDBRANCH   4   5
ENDBRANCH   2   4
BRANCH   2  12
ATOM     12  C18 non dame1      19.993  23.529  36.615  0.00  0.00     0.191 C 
BRANCH  12  13
ATOM     13  C19 non dame1      19.045  23.416  35.505  0.00  0.00     0.070 A 
ATOM     14  C20 non dame1      19.084  22.425  34.621  0.00  0.00     0.036 A 
ATOM     15  C21 non dame1      18.019  22.696  33.730  0.00  0.00     0.027 A 
ATOM     16  C22 non dame1      17.407  23.854  34.177  0.00  0.00     0.142 A 
ATOM     17  O2  non dame1      18.061  24.307  35.292  0.00  0.00    -0.325 OA
ENDBRANCH  12  13
ENDBRANCH   2  12
BRANCH   1  18
ATOM     18  C9  non dame1      21.647  25.830  36.607  0.00  0.00     0.278 C 
BRANCH  18  19
ATOM     19  O1  non dame1      21.531  26.893  35.677  0.00  0.00    -0.342 OA
BRANCH  19  20
ATOM     20  C6  non dame1      21.047  26.413  34.492  0.00  0.00     0.069 A 
ATOM     21  C5  non dame1      21.680  25.347  33.848  0.00  0.00     0.037 A 
ATOM     22  C4  non dame1      21.178  24.858  32.637  0.00  0.00     0.010 A 
ATOM     23  C3  non dame1      20.038  25.440  32.077  0.00  0.00    -0.058 A 
ATOM     24  C8  non dame1      19.403  26.510  32.708  0.00  0.00     0.010 A 
ATOM     25  C7  non dame1      19.909  26.989  33.917  0.00  0.00     0.037 A 
BRANCH  23  26
ATOM     26  C2  non dame1      19.508  24.910  30.806  0.00  0.00     0.034 C 
ATOM     27  C1  non dame1      19.974  23.483  30.620  0.00  0.00     0.010 C 
ENDBRANCH  23  26
ENDBRANCH  19  20
ENDBRANCH  18  19
ENDBRANCH   1  18
TORSDOF 8
ENDMDL
MODEL 84
REMARK VINA RESULT:       0.0      3.611      6.340
REMARK NAME 24390232_Intermediate
REMARK  8 active torsions:
REMARK  status: ('A' for Active; 'I' for Inactive)
REMARK    1  A    between atoms: C2_2  and  C3_3 
REMARK    2  A    between atoms: C6_6  and  O1_9 
REMARK    3  A    between atoms: O1_9  and  C9_10 
REMARK    4  A    between atoms: C9_10  and  C10_11 
REMARK       I    between atoms: C10_11  and  N1_12 
REMARK    5  A    between atoms: N1_12  and  C11_13 
REMARK    6  A    between atoms: N1_12  and  C18_21 
REMARK    7  A    between atoms: C11_13  and  C12_14 
REMARK    8  A    between atoms: C18_21  and  C19_22 
ROOT
ATOM      1  C10 non dame1      18.733  26.637  37.650  0.00  0.00     0.244 C 
ATOM      2  N1  non dame1      18.038  25.487  37.391  0.00  0.00    -0.340 N 
ATOM      3  O3  non dame1      18.455  27.311  38.632  0.00  0.00    -0.271 OA
ENDROOT
BRANCH   2   4
ATOM      4  C11 non dame1      16.982  25.071  38.273  0.00  0.00     0.166 C 
BRANCH   4   5
ATOM      5  C12 non dame1      17.303  23.733  38.831  0.00  0.00    -0.018 A 
ATOM      6  C13 non dame1      18.358  23.579  39.745  0.00  0.00     0.010 A 
ATOM      7  C14 non dame1      18.668  22.314  40.261  0.00  0.00     0.001 A 
ATOM      8  C15 non dame1      17.924  21.197  39.875  0.00  0.00     0.002 A 
ATOM      9  C16 non dame1      16.868  21.351  38.969  0.00  0.00     0.024 A 
ATOM     10  C17 non dame1      16.553  22.607  38.450  0.00  0.00     0.042 A 
ATOM     11 Cl1  non dame1      15.222  22.802  37.319  0.00  0.00    -0.084 Cl
ENDBRANCH   4   5
ENDBRANCH   2   4
BRANCH   2  12
ATOM     12  C18 non dame1      18.363  24.695  36.239  0.00  0.00     0.191 C 
BRANCH  12  13
ATOM     13  C19 non dame1      17.286  24.801  35.254  0.00  0.00     0.070 A 
ATOM     14  C20 non dame1      17.278  24.113  34.117  0.00  0.00     0.036 A 
ATOM     15  C21 non dame1      16.086  24.508  33.466  0.00  0.00     0.027 A 
ATOM     16  C22 non dame1      15.456  25.416  34.299  0.00  0.00     0.142 A 
ATOM     17  O2  non dame1      16.220  25.602  35.422  0.00  0.00    -0.325 OA
ENDBRANCH  12  13
ENDBRANCH   2  12
BRANCH   1  18
ATOM     18  C9  non dame1      19.829  27.069  36.735  0.00  0.00     0.278 C 
BRANCH  18  19
ATOM     19  O1  non dame1      19.510  28.334  36.180  0.00  0.00    -0.342 OA
BRANCH  19  20
ATOM     20  C6  non dame1      18.908  28.162  34.965  0.00  0.00     0.069 A 
ATOM     21  C5  non dame1      19.525  27.399  33.970  0.00  0.00     0.037 A 
ATOM     22  C4  non dame1      18.902  27.224  32.730  0.00  0.00     0.010 A 
ATOM     23  C3  non dame1      17.657  27.812  32.493  0.00  0.00    -0.058 A 
ATOM     24  C8  non dame1      17.036  28.582  33.478  0.00  0.00     0.010 A 
ATOM     25  C7  non dame1      17.664  28.750  34.712  0.00  0.00     0.037 A 
BRANCH  23  26
ATOM     26  C2  non dame1      17.000  27.612  31.187  0.00  0.00     0.034 C 
ATOM     27  C1  non dame1      17.540  26.357  30.538  0.00  0.00     0.010 C 
ENDBRANCH  23  26
ENDBRANCH  19  20
ENDBRANCH  18  19
ENDBRANCH   1  18
TORSDOF 8
ENDMDL
MODEL 85
REMARK VINA RESULT:      -0.0      0.000      0.000
REMARK NAME 24389665_Intermediate
REMARK  2 active torsions:
REMARK  status: ('A' for Active; 'I' for Inactive)
REMARK    1  A    between atoms: C5_5  and  C8_8 
REMARK    2  A    between atoms: N3_14  and  C12_15 
ROOT
ATOM      1  C8  non dame1      18.560  30.190  27.960  0.00  0.00     0.182 A 
ATOM      2  N1  non dame1      19.482  30.700  28.744  0.00  0.00    -0.206 NA
ATOM      3  C9  non dame1      20.525  29.952  28.492  0.00  0.00     0.170 A 
ATOM      4  C10 non dame1      21.813  29.958  28.979  0.00  0.00     0.079 A 
ATOM      5  C11 non dame1      22.524  30.713  29.893  0.00  0.00     0.158 A 
ATOM      6  N2  non dame1      23.784  30.284  29.995  0.00  0.00    -0.177 NA
ATOM      7  N3  non dame1      23.889  29.221  29.124  0.00  0.00    -0.213 N 
ATOM      8  C18 non dame1      22.668  28.995  28.474  0.00  0.00     0.168 A 
ATOM      9  N4  non dame1      22.365  28.031  27.533  0.00  0.00    -0.221 NA
ATOM     10  C19 non dame1      21.128  28.060  27.095  0.00  0.00     0.239 A 
ATOM     11  N5  non dame1      20.211  29.005  27.562  0.00  0.00    -0.206 N 
ATOM     12  N6  non dame1      18.931  29.107  27.170  0.00  0.00    -0.144 NA
ENDROOT
BRANCH   7  13
ATOM     13  C12 non dame1      25.088  28.451  28.912  0.00  0.00     0.084 A 
ATOM     14  C13 non dame1      25.334  27.298  29.677  0.00  0.00     0.057 A 
ATOM     15  C14 non dame1      26.505  26.558  29.479  0.00  0.00     0.036 A 
ATOM     16  C15 non dame1      27.437  26.958  28.516  0.00  0.00     0.026 A 
ATOM     17 Cl2  non dame1      26.802  25.122  30.446  0.00  0.00    -0.084 Cl
ATOM     18  C16 non dame1      27.187  28.102  27.751  0.00  0.00     0.028 A 
ATOM     19  C17 non dame1      26.022  28.846  27.939  0.00  0.00     0.062 A 
ATOM     20 Cl1  non dame1      25.705  30.278  26.972  0.00  0.00    -0.082 Cl
ENDBRANCH   7  13
BRANCH   1  21
ATOM     21  C5  non dame1      17.293  30.697  27.921  0.00  0.00     0.013 A 
ATOM     22  C4  non dame1      16.400  30.297  26.924  0.00  0.00     0.016 A 
ATOM     23  C3  non dame1      15.102  30.819  26.891  0.00  0.00     0.007 A 
ATOM     24  C2  non dame1      14.703  31.740  27.863  0.00  0.00    -0.062 A 
ATOM     25  C1  non dame1      13.329  32.276  27.828  0.00  0.00     0.048 C 
ATOM     26  C7  non dame1      15.590  32.153  28.858  0.00  0.00     0.007 A 
ATOM     27  C6  non dame1      16.882  31.625  28.884  0.00  0.00     0.016 A 
ENDBRANCH   1  21
TORSDOF 2
ENDMDL
MODEL 86
REMARK VINA RESULT:      -0.0     10.732     12.773
REMARK NAME 24389665_Intermediate
REMARK  2 active torsions:
REMARK  status: ('A' for Active; 'I' for Inactive)
REMARK    1  A    between atoms: C5_5  and  C8_8 
REMARK    2  A    between atoms: N3_14  and  C12_15 
ROOT
ATOM      1  C8  non dame1      13.570  28.645  33.852  0.00  0.00     0.182 A 
ATOM      2  N1  non dame1      12.872  27.533  33.814  0.00  0.00    -0.206 NA
ATOM      3  C9  non dame1      13.140  26.982  34.969  0.00  0.00     0.170 A 
ATOM      4  C10 non dame1      12.729  25.805  35.554  0.00  0.00     0.079 A 
ATOM      5  C11 non dame1      11.903  24.756  35.199  0.00  0.00     0.158 A 
ATOM      6  N2  non dame1      11.847  23.838  36.166  0.00  0.00    -0.177 NA
ATOM      7  N3  non dame1      12.661  24.307  37.174  0.00  0.00    -0.213 N 
ATOM      8  C18 non dame1      13.227  25.539  36.818  0.00  0.00     0.168 A 
ATOM      9  N4  non dame1      14.090  26.328  37.551  0.00  0.00    -0.221 NA
ATOM     10  C19 non dame1      14.457  27.440  36.957  0.00  0.00     0.239 A 
ATOM     11  N5  non dame1      13.994  27.772  35.681  0.00  0.00    -0.206 N 
ATOM     12  N6  non dame1      14.316  28.884  35.002  0.00  0.00    -0.144 NA
ENDROOT
BRANCH   7  13
ATOM     13  C12 non dame1      12.896  23.624  38.421  0.00  0.00     0.084 A 
ATOM     14  C13 non dame1      12.074  23.875  39.533  0.00  0.00     0.057 A 
ATOM     15  C14 non dame1      12.310  23.220  40.747  0.00  0.00     0.036 A 
ATOM     16  C15 non dame1      13.364  22.308  40.861  0.00  0.00     0.026 A 
ATOM     17 Cl2  non dame1      11.278  23.549  42.129  0.00  0.00    -0.084 Cl
ATOM     18  C16 non dame1      14.177  22.054  39.751  0.00  0.00     0.028 A 
ATOM     19  C17 non dame1      13.948  22.701  38.536  0.00  0.00     0.062 A 
ATOM     20 Cl1  non dame1      14.965  22.374  37.141  0.00  0.00    -0.082 Cl
ENDBRANCH   7  13
BRANCH   1  21
ATOM     21  C5  non dame1      13.566  29.530  32.812  0.00  0.00     0.013 A 
ATOM     22  C4  non dame1      14.043  30.831  32.986  0.00  0.00     0.016 A 
ATOM     23  C3  non dame1      14.037  31.732  31.915  0.00  0.00     0.007 A 
ATOM     24  C2  non dame1      13.556  31.321  30.669  0.00  0.00    -0.062 A 
ATOM     25  C1  non dame1      13.566  32.273  29.542  0.00  0.00     0.048 C 
ATOM     26  C7  non dame1      13.070  30.026  30.487  0.00  0.00     0.007 A 
ATOM     27  C6  non dame1      13.081  29.134  31.561  0.00  0.00     0.016 A 
ENDBRANCH   1  21
TORSDOF 2
ENDMDL
MODEL 87
REMARK VINA RESULT:      -0.0      6.932     11.124
REMARK NAME 24389665_Intermediate
REMARK  2 active torsions:
REMARK  status: ('A' for Active; 'I' for Inactive)
REMARK    1  A    between atoms: C5_5  and  C8_8 
REMARK    2  A    between atoms: N3_14  and  C12_15 
ROOT
ATOM      1  C8  non dame1      20.199  25.028  33.688  0.00  0.00     0.182 A 
ATOM      2  N1  non dame1      19.268  24.787  32.794  0.00  0.00    -0.206 NA
ATOM      3  C9  non dame1      18.506  25.847  32.874  0.00  0.00     0.170 A 
ATOM      4  C10 non dame1      17.361  26.221  32.208  0.00  0.00     0.079 A 
ATOM      5  C11 non dame1      16.564  25.673  31.221  0.00  0.00     0.158 A 
ATOM      6  N2  non dame1      15.539  26.477  30.927  0.00  0.00    -0.177 NA
ATOM      7  N3  non dame1      15.679  27.575  31.748  0.00  0.00    -0.213 N 
ATOM      8  C18 non dame1      16.812  27.441  32.562  0.00  0.00     0.168 A 
ATOM      9  N4  non dame1      17.293  28.321  33.511  0.00  0.00    -0.221 NA
ATOM     10  C19 non dame1      18.385  27.926  34.123  0.00  0.00     0.239 A 
ATOM     11  N5  non dame1      18.993  26.706  33.816  0.00  0.00    -0.206 N 
ATOM     12  N6  non dame1      20.107  26.226  34.388  0.00  0.00    -0.144 NA
ENDROOT
BRANCH   7  13
ATOM     13  C12 non dame1      14.782  28.703  31.766  0.00  0.00     0.084 A 
ATOM     14  C13 non dame1      15.018  29.810  30.932  0.00  0.00     0.057 A 
ATOM     15  C14 non dame1      14.154  30.910  30.960  0.00  0.00     0.036 A 
ATOM     16  C15 non dame1      13.046  30.914  31.813  0.00  0.00     0.026 A 
ATOM     17 Cl2  non dame1      14.465  32.288  29.916  0.00  0.00    -0.084 Cl
ATOM     18  C16 non dame1      12.809  29.809  32.637  0.00  0.00     0.028 A 
ATOM     19  C17 non dame1      13.664  28.706  32.616  0.00  0.00     0.062 A 
ATOM     20 Cl1  non dame1      13.359  27.315  33.645  0.00  0.00    -0.082 Cl
ENDBRANCH   7  13
BRANCH   1  21
ATOM     21  C5  non dame1      21.213  24.144  33.921  0.00  0.00     0.013 A 
ATOM     22  C4  non dame1      21.997  24.252  35.072  0.00  0.00     0.016 A 
ATOM     23  C3  non dame1      23.034  23.341  35.306  0.00  0.00     0.007 A 
ATOM     24  C2  non dame1      23.278  22.321  34.384  0.00  0.00    -0.062 A 
ATOM     25  C1  non dame1      24.364  21.357  34.644  0.00  0.00     0.048 C 
ATOM     26  C7  non dame1      22.506  22.209  33.226  0.00  0.00     0.007 A 
ATOM     27  C6  non dame1      21.474  23.121  33.002  0.00  0.00     0.016 A 
ENDBRANCH   1  21
TORSDOF 2
ENDMDL
MODEL 88
REMARK VINA RESULT:      -0.0      0.000      0.000
REMARK NAME 17474558_Intermediate
REMARK  5 active torsions:
REMARK  status: ('A' for Active; 'I' for Inactive)
REMARK    1  A    between atoms: C1_1  and  C2_2 
REMARK    2  A    between atoms: C1_1  and  C13_18 
REMARK    3  A    between atoms: N1_4  and  C4_5 
REMARK    4  A    between atoms: C4_5  and  C5_6 
REMARK    5  A    between atoms: C5_6  and  C6_7 
ROOT
ATOM      1  C2  non dame1      17.842  29.119  41.976  0.00  0.00     0.006 A 
ATOM      2  C3  non dame1      17.159  28.620  40.886  0.00  0.00     0.108 A 
ATOM      3  N1  non dame1      17.474  29.283  39.692  0.00  0.00    -0.328 N 
ATOM      4  C12 non dame1      18.424  30.269  39.954  0.00  0.00     0.166 A 
ATOM      5  N2  non dame1      18.952  31.077  39.007  0.00  0.00    -0.277 NA
ATOM      6  S1  non dame1      18.906  30.398  41.644  0.00  0.00    -0.055 SA
ATOM      7  H10 non dame1      18.612  32.019  39.141  0.00  0.00     0.189 HD
ENDROOT
BRANCH   3   8
ATOM      8  C4  non dame1      16.917  29.004  38.393  0.00  0.00     0.214 C 
BRANCH   8   9
ATOM      9  C5  non dame1      15.740  29.891  38.156  0.00  0.00     0.177 C 
ATOM     10  O1  non dame1      15.664  30.542  37.126  0.00  0.00    -0.291 OA
BRANCH   9  11
ATOM     11  C6  non dame1      14.681  29.979  39.153  0.00  0.00     0.012 A 
ATOM     12  C7  non dame1      14.491  31.164  39.881  0.00  0.00     0.018 A 
ATOM     13  C8  non dame1      13.481  31.242  40.847  0.00  0.00     0.043 A 
ATOM     14  C9  non dame1      12.653  30.144  41.092  0.00  0.00     0.116 A 
ATOM     15  C10 non dame1      12.840  28.964  40.361  0.00  0.00     0.043 A 
ATOM     16  F1  non dame1      11.662  30.214  42.038  0.00  0.00    -0.206 F 
ATOM     17  C11 non dame1      13.843  28.876  39.395  0.00  0.00     0.018 A 
ENDBRANCH   9  11
ENDBRANCH   8   9
ENDBRANCH   3   8
BRANCH   1  18
ATOM     18  C1  non dame1      17.664  28.579  43.355  0.00  0.00     0.086 C 
BRANCH  18  19
ATOM     19  C13 non dame1      16.252  28.716  43.759  0.00  0.00    -0.052 A 
ATOM     20  C14 non dame1      15.483  27.569  43.962  0.00  0.00     0.007 A 
ATOM     21  C15 non dame1      14.141  27.692  44.334  0.00  0.00     0.002 A 
ATOM     22  C16 non dame1      13.571  28.957  44.506  0.00  0.00     0.024 A 
ATOM     23  C17 non dame1      14.356  30.097  44.305  0.00  0.00     0.034 A 
ATOM     24  C18 non dame1      15.696  29.985  43.936  0.00  0.00     0.031 A 
ATOM     25 Cl1  non dame1      13.634  31.685  44.523  0.00  0.00    -0.084 Cl
ENDBRANCH  18  19
ENDBRANCH   1  18
TORSDOF 5
ENDMDL
MODEL 89
REMARK VINA RESULT:      -0.0     11.068     13.369
REMARK NAME 17474558_Intermediate
REMARK  5 active torsions:
REMARK  status: ('A' for Active; 'I' for Inactive)
REMARK    1  A    between atoms: C1_1  and  C2_2 
REMARK    2  A    between atoms: C1_1  and  C13_18 
REMARK    3  A    between atoms: N1_4  and  C4_5 
REMARK    4  A    between atoms: C4_5  and  C5_6 
REMARK    5  A    between atoms: C5_6  and  C6_7 
ROOT
ATOM      1  C2  non dame1      19.694  24.536  31.875  0.00  0.00     0.006 A 
ATOM      2  C3  non dame1      20.798  25.073  31.245  0.00  0.00     0.108 A 
ATOM      3  N1  non dame1      21.020  24.528  29.973  0.00  0.00    -0.328 N 
ATOM      4  C12 non dame1      20.027  23.590  29.697  0.00  0.00     0.166 A 
ATOM      5  N2  non dame1      19.947  22.894  28.541  0.00  0.00    -0.277 NA
ATOM      6  S1  non dame1      18.851  23.360  30.990  0.00  0.00    -0.055 SA
ATOM      7  H10 non dame1      20.170  21.925  28.714  0.00  0.00     0.189 HD
ENDROOT
BRANCH   3   8
ATOM      8  C4  non dame1      22.097  24.871  29.079  0.00  0.00     0.214 C 
BRANCH   8   9
ATOM      9  C5  non dame1      23.236  23.930  29.288  0.00  0.00     0.177 C 
ATOM     10  O1  non dame1      23.739  23.358  28.334  0.00  0.00    -0.291 OA
BRANCH   9  11
ATOM     11  C6  non dame1      23.750  23.695  30.631  0.00  0.00     0.012 A 
ATOM     12  C7  non dame1      23.573  22.447  31.248  0.00  0.00     0.018 A 
ATOM     13  C8  non dame1      24.057  22.227  32.544  0.00  0.00     0.043 A 
ATOM     14  C9  non dame1      24.720  23.246  33.230  0.00  0.00     0.116 A 
ATOM     15  C10 non dame1      24.901  24.489  32.612  0.00  0.00     0.043 A 
ATOM     16  F1  non dame1      25.195  23.037  34.501  0.00  0.00    -0.206 F 
ATOM     17  C11 non dame1      24.425  24.718  31.320  0.00  0.00     0.018 A 
ENDBRANCH   9  11
ENDBRANCH   8   9
ENDBRANCH   3   8
BRANCH   1  18
ATOM     18  C1  non dame1      19.264  24.953  33.241  0.00  0.00     0.086 C 
BRANCH  18  19
ATOM     19  C13 non dame1      20.353  24.692  34.202  0.00  0.00    -0.052 A 
ATOM     20  C14 non dame1      20.984  25.767  34.831  0.00  0.00     0.007 A 
ATOM     21  C15 non dame1      22.025  25.526  35.734  0.00  0.00     0.002 A 
ATOM     22  C16 non dame1      22.430  24.217  36.008  0.00  0.00     0.024 A 
ATOM     23  C17 non dame1      21.784  23.150  35.375  0.00  0.00     0.034 A 
ATOM     24  C18 non dame1      20.744  23.379  34.475  0.00  0.00     0.031 A 
ATOM     25 Cl1  non dame1      22.298  21.506  35.726  0.00  0.00    -0.084 Cl
ENDBRANCH  18  19
ENDBRANCH   1  18
TORSDOF 5
ENDMDL
MODEL 90
REMARK VINA RESULT:      -0.0     11.667     14.234
REMARK NAME 17474558_Intermediate
REMARK  5 active torsions:
REMARK  status: ('A' for Active; 'I' for Inactive)
REMARK    1  A    between atoms: C1_1  and  C2_2 
REMARK    2  A    between atoms: C1_1  and  C13_18 
REMARK    3  A    between atoms: N1_4  and  C4_5 
REMARK    4  A    between atoms: C4_5  and  C5_6 
REMARK    5  A    between atoms: C5_6  and  C6_7 
ROOT
ATOM      1  C2  non dame1      25.875  25.454  33.469  0.00  0.00     0.006 A 
ATOM      2  C3  non dame1      24.509  25.516  33.660  0.00  0.00     0.108 A 
ATOM      3  N1  non dame1      24.153  25.721  35.000  0.00  0.00    -0.328 N 
ATOM      4  C12 non dame1      25.310  25.822  35.771  0.00  0.00     0.166 A 
ATOM      5  N2  non dame1      25.311  26.039  37.105  0.00  0.00    -0.277 NA
ATOM      6  S1  non dame1      26.814  25.645  34.868  0.00  0.00    -0.055 SA
ATOM      7  H10 non dame1      25.621  25.203  37.582  0.00  0.00     0.189 HD
ENDROOT
BRANCH   3   8
ATOM      8  C4  non dame1      22.812  25.814  35.518  0.00  0.00     0.214 C 
BRANCH   8   9
ATOM      9  C5  non dame1      22.360  24.468  35.976  0.00  0.00     0.177 C 
ATOM     10  O1  non dame1      21.889  24.330  37.093  0.00  0.00    -0.291 OA
BRANCH   9  11
ATOM     11  C6  non dame1      22.481  23.318  35.089  0.00  0.00     0.012 A 
ATOM     12  C7  non dame1      23.393  22.292  35.379  0.00  0.00     0.018 A 
ATOM     13  C8  non dame1      23.516  21.194  34.520  0.00  0.00     0.043 A 
ATOM     14  C9  non dame1      22.730  21.110  33.368  0.00  0.00     0.116 A 
ATOM     15  C10 non dame1      21.817  22.131  33.081  0.00  0.00     0.043 A 
ATOM     16  F1  non dame1      22.847  20.037  32.520  0.00  0.00    -0.206 F 
ATOM     17  C11 non dame1      21.685  23.229  33.933  0.00  0.00     0.018 A 
ENDBRANCH   9  11
ENDBRANCH   8   9
ENDBRANCH   3   8
BRANCH   1  18
ATOM     18  C1  non dame1      26.492  25.234  32.129  0.00  0.00     0.086 C 
BRANCH  18  19
ATOM     19  C13 non dame1      26.021  23.950  31.575  0.00  0.00    -0.052 A 
ATOM     20  C14 non dame1      25.219  23.950  30.432  0.00  0.00     0.007 A 
ATOM     21  C15 non dame1      24.760  22.737  29.909  0.00  0.00     0.002 A 
ATOM     22  C16 non dame1      25.105  21.530  30.523  0.00  0.00     0.024 A 
ATOM     23  C17 non dame1      25.914  21.546  31.664  0.00  0.00     0.034 A 
ATOM     24  C18 non dame1      26.379  22.749  32.193  0.00  0.00     0.031 A 
ATOM     25 Cl1  non dame1      26.345  20.024  32.431  0.00  0.00    -0.084 Cl
ENDBRANCH  18  19
ENDBRANCH   1  18
TORSDOF 5
ENDMDL
MODEL 91
REMARK VINA RESULT:       0.0      0.000      0.000
REMARK NAME 103074475_Intermediate
REMARK  7 active torsions:
REMARK  status: ('A' for Active; 'I' for Inactive)
REMARK       I    between atoms: C2_2  and  N1_3 
REMARK    1  A    between atoms: N1_3  and  C3_4 
REMARK    2  A    between atoms: C6_7  and  C7_8 
REMARK    3  A    between atoms: C7_8  and  N2_9 
REMARK    4  A    between atoms: N2_9  and  C8_10 
REMARK       I    between atoms: C13_17  and  N4_18 
REMARK    5  A    between atoms: N4_18  and  C14_19 
REMARK    6  A    between atoms: C14_19  and  C15_20 
REMARK    7  A    between atoms: C15_20  and  O1_21 
ROOT
ATOM      1  C8  non dame1      17.759  26.579  36.824  0.00  0.00     0.162 A 
ATOM      2  C9  non dame1      18.526  27.088  37.858  0.00  0.00     0.080 A 
ATOM      3  C10 non dame1      19.083  26.194  38.761  0.00  0.00     0.097 A 
ATOM      4  C11 non dame1      19.842  26.858  39.775  0.00  0.00     0.041 A 
ATOM      5  C12 non dame1      19.889  28.232  39.596  0.00  0.00     0.053 A 
ATOM      6  S1  non dame1      18.919  28.705  38.261  0.00  0.00    -0.096 SA
ATOM      7  N3  non dame1      18.893  24.857  38.660  0.00  0.00    -0.062 NA
ATOM      8  C13 non dame1      18.158  24.460  37.624  0.00  0.00     0.725 A 
ATOM      9  N4  non dame1      17.958  23.047  37.425  0.00  0.00    -0.220 N 
ATOM     10  N5  non dame1      17.576  25.257  36.727  0.00  0.00    -0.044 NA
ATOM     11  H12 non dame1      18.375  22.392  38.069  0.00  0.00     0.177 HD
ENDROOT
BRANCH   1  12
ATOM     12  N2  non dame1      17.160  27.473  35.851  0.00  0.00    -0.369 N 
ATOM     13  H9  non dame1      16.560  28.223  36.162  0.00  0.00     0.161 HD
BRANCH  12  14
ATOM     14  C7  non dame1      17.426  27.286  34.428  0.00  0.00     0.160 C 
BRANCH  14  15
ATOM     15  C6  non dame1      18.846  27.573  34.151  0.00  0.00    -0.040 A 
ATOM     16  C5  non dame1      19.368  28.851  34.374  0.00  0.00     0.011 A 
ATOM     17  C4  non dame1      20.718  29.116  34.111  0.00  0.00     0.030 A 
ATOM     18  C3  non dame1      21.542  28.096  33.631  0.00  0.00     0.034 A 
ATOM     19  C18 non dame1      21.029  26.818  33.397  0.00  0.00     0.030 A 
ATOM     20  C17 non dame1      19.683  26.563  33.663  0.00  0.00     0.011 A 
BRANCH  18  21
ATOM     21  N1  non dame1      22.877  28.362  33.385  0.00  0.00    -0.328 N 
ATOM     22  C2  non dame1      23.806  28.180  34.375  0.00  0.00     0.218 C 
ATOM     23  C1  non dame1      25.246  28.468  34.110  0.00  0.00     0.117 C 
ATOM     24  O2  non dame1      23.454  27.782  35.476  0.00  0.00    -0.274 OA
ATOM     25  H4  non dame1      23.177  28.692  32.478  0.00  0.00     0.169 HD
ENDBRANCH  18  21
ENDBRANCH  14  15
ENDBRANCH  12  14
ENDBRANCH   1  12
BRANCH   9  26
ATOM     26  C14 non dame1      17.157  22.576  36.299  0.00  0.00     0.164 C 
BRANCH  26  27
ATOM     27  C15 non dame1      18.065  21.911  35.276  0.00  0.00     0.187 C 
BRANCH  27  28
ATOM     28  O1  non dame1      18.609  22.897  34.415  0.00  0.00    -0.394 OA
ATOM     29  C16 non dame1      17.582  23.432  33.597  0.00  0.00     0.201 C 
ENDBRANCH  27  28
ENDBRANCH  26  27
ENDBRANCH   9  26
TORSDOF 7
ENDMDL
MODEL 92
REMARK VINA RESULT:       0.0      3.799      6.580
REMARK NAME 103074475_Intermediate
REMARK  7 active torsions:
REMARK  status: ('A' for Active; 'I' for Inactive)
REMARK       I    between atoms: C2_2  and  N1_3 
REMARK    1  A    between atoms: N1_3  and  C3_4 
REMARK    2  A    between atoms: C6_7  and  C7_8 
REMARK    3  A    between atoms: C7_8  and  N2_9 
REMARK    4  A    between atoms: N2_9  and  C8_10 
REMARK       I    between atoms: C13_17  and  N4_18 
REMARK    5  A    between atoms: N4_18  and  C14_19 
REMARK    6  A    between atoms: C14_19  and  C15_20 
REMARK    7  A    between atoms: C15_20  and  O1_21 
ROOT
ATOM      1  C8  non dame1      18.655  28.917  32.098  0.00  0.00     0.162 A 
ATOM      2  C9  non dame1      19.981  28.572  31.898  0.00  0.00     0.080 A 
ATOM      3  C10 non dame1      20.908  28.951  32.858  0.00  0.00     0.097 A 
ATOM      4  C11 non dame1      22.233  28.535  32.519  0.00  0.00     0.041 A 
ATOM      5  C12 non dame1      22.281  27.809  31.340  0.00  0.00     0.053 A 
ATOM      6  S1  non dame1      20.731  27.737  30.605  0.00  0.00    -0.096 SA
ATOM      7  N3  non dame1      20.553  29.644  33.967  0.00  0.00    -0.062 NA
ATOM      8  C13 non dame1      19.255  29.913  34.082  0.00  0.00     0.725 A 
ATOM      9  N4  non dame1      18.798  30.603  35.263  0.00  0.00    -0.220 N 
ATOM     10  N5  non dame1      18.309  29.600  33.196  0.00  0.00    -0.044 NA
ATOM     11  H12 non dame1      19.466  30.865  35.972  0.00  0.00     0.177 HD
ENDROOT
BRANCH   1  12
ATOM     12  N2  non dame1      17.647  28.538  31.125  0.00  0.00    -0.369 N 
ATOM     13  H9  non dame1      17.771  28.786  30.154  0.00  0.00     0.161 HD
BRANCH  12  14
ATOM     14  C7  non dame1      16.461  27.803  31.552  0.00  0.00     0.160 C 
BRANCH  14  15
ATOM     15  C6  non dame1      16.850  26.441  31.966  0.00  0.00    -0.040 A 
ATOM     16  C5  non dame1      17.449  25.566  31.055  0.00  0.00     0.011 A 
ATOM     17  C4  non dame1      17.818  24.276  31.455  0.00  0.00     0.030 A 
ATOM     18  C3  non dame1      17.589  23.869  32.771  0.00  0.00     0.034 A 
ATOM     19  C18 non dame1      16.984  24.732  33.688  0.00  0.00     0.030 A 
ATOM     20  C17 non dame1      16.622  26.016  33.280  0.00  0.00     0.011 A 
BRANCH  18  21
ATOM     21  N1  non dame1      17.967  22.597  33.163  0.00  0.00    -0.328 N 
ATOM     22  C2  non dame1      19.215  22.383  33.684  0.00  0.00     0.218 C 
ATOM     23  C1  non dame1      19.623  21.010  34.106  0.00  0.00     0.117 C 
ATOM     24  O2  non dame1      19.995  23.316  33.803  0.00  0.00    -0.274 OA
ATOM     25  H4  non dame1      17.329  21.819  33.068  0.00  0.00     0.169 HD
ENDBRANCH  18  21
ENDBRANCH  14  15
ENDBRANCH  12  14
ENDBRANCH   1  12
BRANCH   9  26
ATOM     26  C14 non dame1      17.381  30.914  35.422  0.00  0.00     0.164 C 
BRANCH  26  27
ATOM     27  C15 non dame1      16.791  30.039  36.516  0.00  0.00     0.187 C 
BRANCH  27  28
ATOM     28  O1  non dame1      16.361  28.809  35.958  0.00  0.00    -0.394 OA
ATOM     29  C16 non dame1      15.266  29.039  35.089  0.00  0.00     0.201 C 
ENDBRANCH  27  28
ENDBRANCH  26  27
ENDBRANCH   9  26
TORSDOF 7
ENDMDL
MODEL 93
REMARK VINA RESULT:       0.0      3.042      6.832
REMARK NAME 103074475_Intermediate
REMARK  7 active torsions:
REMARK  status: ('A' for Active; 'I' for Inactive)
REMARK       I    between atoms: C2_2  and  N1_3 
REMARK    1  A    between atoms: N1_3  and  C3_4 
REMARK    2  A    between atoms: C6_7  and  C7_8 
REMARK    3  A    between atoms: C7_8  and  N2_9 
REMARK    4  A    between atoms: N2_9  and  C8_10 
REMARK       I    between atoms: C13_17  and  N4_18 
REMARK    5  A    between atoms: N4_18  and  C14_19 
REMARK    6  A    between atoms: C14_19  and  C15_20 
REMARK    7  A    between atoms: C15_20  and  O1_21 
ROOT
ATOM      1  C8  non dame1      19.882  26.576  34.167  0.00  0.00     0.162 A 
ATOM      2  C9  non dame1      18.825  27.276  33.610  0.00  0.00     0.080 A 
ATOM      3  C10 non dame1      18.671  27.240  32.231  0.00  0.00     0.097 A 
ATOM      4  C11 non dame1      17.547  28.008  31.796  0.00  0.00     0.041 A 
ATOM      5  C12 non dame1      16.842  28.570  32.849  0.00  0.00     0.053 A 
ATOM      6  S1  non dame1      17.621  28.245  34.345  0.00  0.00    -0.096 SA
ATOM      7  N3  non dame1      19.520  26.552  31.430  0.00  0.00    -0.062 NA
ATOM      8  C13 non dame1      20.493  25.894  32.057  0.00  0.00     0.725 A 
ATOM      9  N4  non dame1      21.402  25.099  31.271  0.00  0.00    -0.220 N 
ATOM     10  N5  non dame1      20.716  25.896  33.372  0.00  0.00    -0.044 NA
ATOM     11  H12 non dame1      21.283  25.056  30.270  0.00  0.00     0.177 HD
ENDROOT
BRANCH   1  12
ATOM     12  N2  non dame1      20.082  26.578  35.604  0.00  0.00    -0.369 N 
ATOM     13  H9  non dame1      20.143  27.455  36.100  0.00  0.00     0.161 HD
BRANCH  12  14
ATOM     14  C7  non dame1      20.192  25.314  36.327  0.00  0.00     0.160 C 
BRANCH  14  15
ATOM     15  C6  non dame1      18.887  24.626  36.316  0.00  0.00    -0.040 A 
ATOM     16  C5  non dame1      17.765  25.222  36.899  0.00  0.00     0.011 A 
ATOM     17  C4  non dame1      16.530  24.564  36.883  0.00  0.00     0.030 A 
ATOM     18  C3  non dame1      16.422  23.311  36.276  0.00  0.00     0.034 A 
ATOM     19  C18 non dame1      17.538  22.702  35.698  0.00  0.00     0.030 A 
ATOM     20  C17 non dame1      18.765  23.367  35.718  0.00  0.00     0.011 A 
BRANCH  18  21
ATOM     21  N1  non dame1      15.195  22.672  36.254  0.00  0.00    -0.328 N 
ATOM     22  C2  non dame1      14.340  22.867  35.202  0.00  0.00     0.218 C 
ATOM     23  C1  non dame1      13.016  22.178  35.178  0.00  0.00     0.117 C 
ATOM     24  O2  non dame1      14.662  23.605  34.283  0.00  0.00    -0.274 OA
ATOM     25  H4  non dame1      14.920  22.060  37.009  0.00  0.00     0.169 HD
ENDBRANCH  18  21
ENDBRANCH  14  15
ENDBRANCH  12  14
ENDBRANCH   1  12
BRANCH   9  26
ATOM     26  C14 non dame1      22.480  24.366  31.926  0.00  0.00     0.164 C 
BRANCH  26  27
ATOM     27  C15 non dame1      22.184  22.875  31.872  0.00  0.00     0.187 C 
BRANCH  27  28
ATOM     28  O1  non dame1      21.385  22.511  32.984  0.00  0.00    -0.394 OA
ATOM     29  C16 non dame1      22.137  22.657  34.177  0.00  0.00     0.201 C 
ENDBRANCH  27  28
ENDBRANCH  26  27
ENDBRANCH   9  26
TORSDOF 7
ENDMDL
MODEL 94
REMARK VINA RESULT:      -0.0      0.000      0.000
REMARK NAME 17506356_Intermediate
REMARK  9 active torsions:
REMARK  status: ('A' for Active; 'I' for Inactive)
REMARK    1  A    between atoms: O1_1  and  N1_2 
REMARK    2  A    between atoms: N1_2  and  C1_3 
REMARK    3  A    between atoms: C5_7  and  N2_9 
REMARK       I    between atoms: N2_9  and  C7_10 
REMARK    4  A    between atoms: C7_10  and  C8_11 
REMARK    5  A    between atoms: C8_11  and  N3_12 
REMARK    6  A    between atoms: N3_12  and  C9_13 
REMARK    7  A    between atoms: N3_12  and  S1_21 
REMARK    8  A    between atoms: C9_13  and  C10_14 
REMARK    9  A    between atoms: S1_21  and  C17_22 
ROOT
ATOM      1  N3  non dame1      14.378  25.662  35.470  0.00  0.00    -0.194 NA
ENDROOT
BRANCH   1   2
ATOM      2  C8  non dame1      13.841  26.063  34.182  0.00  0.00     0.211 C 
BRANCH   2   3
ATOM      3  C7  non dame1      14.927  26.032  33.160  0.00  0.00     0.236 C 
ATOM      4  N2  non dame1      16.076  26.750  33.360  0.00  0.00    -0.326 N 
ATOM      5  H7  non dame1      16.180  27.297  34.202  0.00  0.00     0.169 HD
ATOM      6  O4  non dame1      14.790  25.368  32.144  0.00  0.00    -0.272 OA
BRANCH   4   7
ATOM      7  C5  non dame1      17.083  26.723  32.409  0.00  0.00     0.037 A 
ATOM      8  C4  non dame1      17.066  27.659  31.368  0.00  0.00     0.029 A 
ATOM      9  C3  non dame1      18.078  27.635  30.406  0.00  0.00     0.005 A 
ATOM     10  C2  non dame1      19.102  26.684  30.483  0.00  0.00     0.050 A 
ATOM     11  C1  non dame1      19.108  25.760  31.531  0.00  0.00     0.232 A 
ATOM     12  C6  non dame1      18.098  25.770  32.494  0.00  0.00     0.079 A 
BRANCH  11  13
ATOM     13  N1  non dame1      20.172  24.792  31.612  0.00  0.00     0.180 N 
ATOM     14  O5  non dame1      19.987  23.968  32.791  0.00  0.00    -0.032 OA
ATOM     15  H2  non dame1      21.056  25.276  31.670  0.00  0.00     0.411 HD
BRANCH  13  16
ATOM     16  O1  non dame1      20.154  23.954  30.430  0.00  0.00    -0.155 OA
ATOM     17  H1  non dame1      20.898  24.179  29.866  0.00  0.00     0.261 HD
ENDBRANCH  13  16
ENDBRANCH  11  13
ENDBRANCH   4   7
ENDBRANCH   2   3
ENDBRANCH   1   2
BRANCH   1  18
ATOM     18  C9  non dame1      14.355  24.214  35.573  0.00  0.00     0.147 C 
BRANCH  18  19
ATOM     19  C10 non dame1      15.611  23.743  36.212  0.00  0.00    -0.038 A 
ATOM     20  C11 non dame1      16.857  24.075  35.656  0.00  0.00     0.009 A 
ATOM     21  C12 non dame1      18.038  23.619  36.251  0.00  0.00     0.001 A 
ATOM     22  C13 non dame1      17.987  22.836  37.406  0.00  0.00     0.001 A 
ATOM     23  C14 non dame1      16.746  22.509  37.963  0.00  0.00     0.007 A 
ATOM     24  C15 non dame1      15.560  22.959  37.377  0.00  0.00    -0.054 A 
ATOM     25  C16 non dame1      14.253  22.620  37.970  0.00  0.00     0.049 C 
ENDBRANCH  18  19
ENDBRANCH   1  18
BRANCH   1  26
ATOM     26  S1  non dame1      13.457  26.316  36.677  0.00  0.00     0.244 S 
ATOM     27  O2  non dame1      12.092  25.396  36.895  0.00  0.00    -0.206 OA
ATOM     28  O3  non dame1      13.022  27.864  36.265  0.00  0.00    -0.206 OA
BRANCH  26  29
ATOM     29  C17 non dame1      14.394  26.347  38.180  0.00  0.00     0.074 A 
ATOM     30  C18 non dame1      15.755  26.695  38.160  0.00  0.00     0.026 A 
ATOM     31  C19 non dame1      16.497  26.711  39.345  0.00  0.00     0.025 A 
ATOM     32  C20 non dame1      15.890  26.379  40.559  0.00  0.00     0.034 A 
ATOM     33  C21 non dame1      14.532  26.037  40.581  0.00  0.00     0.025 A 
ATOM     34 Cl1  non dame1      16.816  26.388  42.054  0.00  0.00    -0.084 Cl
ATOM     35  C22 non dame1      13.782  26.024  39.403  0.00  0.00     0.026 A 
ENDBRANCH  26  29
ENDBRANCH   1  26
TORSDOF 9
ENDMDL
MODEL 95
REMARK VINA RESULT:      -0.0      4.212      6.097
REMARK NAME 17506356_Intermediate
REMARK  9 active torsions:
REMARK  status: ('A' for Active; 'I' for Inactive)
REMARK    1  A    between atoms: O1_1  and  N1_2 
REMARK    2  A    between atoms: N1_2  and  C1_3 
REMARK    3  A    between atoms: C5_7  and  N2_9 
REMARK       I    between atoms: N2_9  and  C7_10 
REMARK    4  A    between atoms: C7_10  and  C8_11 
REMARK    5  A    between atoms: C8_11  and  N3_12 
REMARK    6  A    between atoms: N3_12  and  C9_13 
REMARK    7  A    between atoms: N3_12  and  S1_21 
REMARK    8  A    between atoms: C9_13  and  C10_14 
REMARK    9  A    between atoms: S1_21  and  C17_22 
ROOT
ATOM      1  N3  non dame1      17.837  29.293  35.144  0.00  0.00    -0.194 NA
ENDROOT
BRANCH   1   2
ATOM      2  C8  non dame1      16.911  30.326  34.719  0.00  0.00     0.211 C 
BRANCH   2   3
ATOM      3  C7  non dame1      15.804  29.709  33.933  0.00  0.00     0.236 C 
ATOM      4  N2  non dame1      16.088  28.944  32.834  0.00  0.00    -0.326 N 
ATOM      5  H7  non dame1      17.051  28.802  32.563  0.00  0.00     0.169 HD
ATOM      6  O4  non dame1      14.643  29.887  34.270  0.00  0.00    -0.272 OA
BRANCH   4   7
ATOM      7  C5  non dame1      15.059  28.372  32.103  0.00  0.00     0.037 A 
ATOM      8  C4  non dame1      14.483  29.095  31.052  0.00  0.00     0.029 A 
ATOM      9  C3  non dame1      13.444  28.524  30.314  0.00  0.00     0.005 A 
ATOM     10  C2  non dame1      12.985  27.238  30.620  0.00  0.00     0.050 A 
ATOM     11  C1  non dame1      13.575  26.526  31.668  0.00  0.00     0.232 A 
ATOM     12  C6  non dame1      14.608  27.090  32.418  0.00  0.00     0.079 A 
BRANCH  11  13
ATOM     13  N1  non dame1      13.107  25.198  31.970  0.00  0.00     0.180 N 
ATOM     14  O5  non dame1      13.926  24.624  33.020  0.00  0.00    -0.032 OA
ATOM     15  H2  non dame1      13.170  24.628  31.138  0.00  0.00     0.411 HD
BRANCH  13  16
ATOM     16  O1  non dame1      11.728  25.260  32.412  0.00  0.00    -0.155 OA
ATOM     17  H1  non dame1      11.531  26.146  32.724  0.00  0.00     0.261 HD
ENDBRANCH  13  16
ENDBRANCH  11  13
ENDBRANCH   4   7
ENDBRANCH   2   3
ENDBRANCH   1   2
BRANCH   1  18
ATOM     18  C9  non dame1      17.368  28.706  36.386  0.00  0.00     0.147 C 
BRANCH  18  19
ATOM     19  C10 non dame1      17.563  27.234  36.342  0.00  0.00    -0.038 A 
ATOM     20  C11 non dame1      16.971  26.470  35.323  0.00  0.00     0.009 A 
ATOM     21  C12 non dame1      17.146  25.082  35.291  0.00  0.00     0.001 A 
ATOM     22  C13 non dame1      17.915  24.446  36.268  0.00  0.00     0.001 A 
ATOM     23  C14 non dame1      18.509  25.207  37.281  0.00  0.00     0.007 A 
ATOM     24  C15 non dame1      18.341  26.594  37.322  0.00  0.00    -0.054 A 
ATOM     25  C16 non dame1      18.974  27.396  38.385  0.00  0.00     0.049 C 
ENDBRANCH  18  19
ENDBRANCH   1  18
BRANCH   1  26
ATOM     26  S1  non dame1      19.332  29.958  35.378  0.00  0.00     0.244 S 
ATOM     27  O2  non dame1      19.398  30.661  36.881  0.00  0.00    -0.206 OA
ATOM     28  O3  non dame1      19.616  31.108  34.215  0.00  0.00    -0.206 OA
BRANCH  26  29
ATOM     29  C17 non dame1      20.564  28.690  35.266  0.00  0.00     0.074 A 
ATOM     30  C18 non dame1      20.445  27.669  34.308  0.00  0.00     0.026 A 
ATOM     31  C19 non dame1      21.412  26.662  34.225  0.00  0.00     0.025 A 
ATOM     32  C20 non dame1      22.505  26.664  35.096  0.00  0.00     0.034 A 
ATOM     33  C21 non dame1      22.628  27.684  36.047  0.00  0.00     0.025 A 
ATOM     34 Cl1  non dame1      23.722  25.399  35.005  0.00  0.00    -0.084 Cl
ATOM     35  C22 non dame1      21.669  28.696  36.133  0.00  0.00     0.026 A 
ENDBRANCH  26  29
ENDBRANCH   1  26
TORSDOF 9
ENDMDL
MODEL 96
REMARK VINA RESULT:      -0.0      6.224      8.274
REMARK NAME 17506356_Intermediate
REMARK  9 active torsions:
REMARK  status: ('A' for Active; 'I' for Inactive)
REMARK    1  A    between atoms: O1_1  and  N1_2 
REMARK    2  A    between atoms: N1_2  and  C1_3 
REMARK    3  A    between atoms: C5_7  and  N2_9 
REMARK       I    between atoms: N2_9  and  C7_10 
REMARK    4  A    between atoms: C7_10  and  C8_11 
REMARK    5  A    between atoms: C8_11  and  N3_12 
REMARK    6  A    between atoms: N3_12  and  C9_13 
REMARK    7  A    between atoms: N3_12  and  S1_21 
REMARK    8  A    between atoms: C9_13  and  C10_14 
REMARK    9  A    between atoms: S1_21  and  C17_22 
ROOT
ATOM      1  N3  non dame1      20.047  23.508  30.462  0.00  0.00    -0.194 NA
ENDROOT
BRANCH   1   2
ATOM      2  C8  non dame1      21.454  23.864  30.447  0.00  0.00     0.211 C 
BRANCH   2   3
ATOM      3  C7  non dame1      22.088  23.436  31.727  0.00  0.00     0.236 C 
ATOM      4  N2  non dame1      21.608  23.905  32.920  0.00  0.00    -0.326 N 
ATOM      5  H7  non dame1      20.823  24.540  32.924  0.00  0.00     0.169 HD
ATOM      6  O4  non dame1      23.038  22.667  31.710  0.00  0.00    -0.272 OA
BRANCH   4   7
ATOM      7  C5  non dame1      22.199  23.508  34.108  0.00  0.00     0.037 A 
ATOM      8  C4  non dame1      23.269  24.251  34.622  0.00  0.00     0.029 A 
ATOM      9  C3  non dame1      23.869  23.854  35.819  0.00  0.00     0.005 A 
ATOM     10  C2  non dame1      23.404  22.724  36.501  0.00  0.00     0.050 A 
ATOM     11  C1  non dame1      22.330  21.997  35.979  0.00  0.00     0.232 A 
ATOM     12  C6  non dame1      21.728  22.379  34.780  0.00  0.00     0.079 A 
BRANCH  11  13
ATOM     13  N1  non dame1      21.848  20.842  36.692  0.00  0.00     0.180 N 
ATOM     14  O5  non dame1      20.715  20.276  35.986  0.00  0.00    -0.032 OA
ATOM     15  H2  non dame1      21.565  21.122  37.621  0.00  0.00     0.411 HD
BRANCH  13  16
ATOM     16  O1  non dame1      22.903  19.853  36.783  0.00  0.00    -0.155 OA
ATOM     17  H1  non dame1      23.590  20.171  37.374  0.00  0.00     0.261 HD
ENDBRANCH  13  16
ENDBRANCH  11  13
ENDBRANCH   4   7
ENDBRANCH   2   3
ENDBRANCH   1   2
BRANCH   1  18
ATOM     18  C9  non dame1      19.894  22.128  30.037  0.00  0.00     0.147 C 
BRANCH  18  19
ATOM     19  C10 non dame1      18.877  21.459  30.888  0.00  0.00    -0.038 A 
ATOM     20  C11 non dame1      19.015  21.450  32.285  0.00  0.00     0.009 A 
ATOM     21  C12 non dame1      18.062  20.808  33.084  0.00  0.00     0.001 A 
ATOM     22  C13 non dame1      16.963  20.176  32.498  0.00  0.00     0.001 A 
ATOM     23  C14 non dame1      16.822  20.189  31.106  0.00  0.00     0.007 A 
ATOM     24  C15 non dame1      17.768  20.827  30.299  0.00  0.00    -0.054 A 
ATOM     25  C16 non dame1      17.614  20.847  28.833  0.00  0.00     0.049 C 
ENDBRANCH  18  19
ENDBRANCH   1  18
BRANCH   1  26
ATOM     26  S1  non dame1      19.219  24.497  29.428  0.00  0.00     0.244 S 
ATOM     27  O2  non dame1      19.422  23.967  27.868  0.00  0.00    -0.206 OA
ATOM     28  O3  non dame1      19.795  26.048  29.565  0.00  0.00    -0.206 OA
BRANCH  26  29
ATOM     29  C17 non dame1      17.497  24.470  29.841  0.00  0.00     0.074 A 
ATOM     30  C18 non dame1      17.089  24.514  31.185  0.00  0.00     0.026 A 
ATOM     31  C19 non dame1      15.730  24.482  31.512  0.00  0.00     0.025 A 
ATOM     32  C20 non dame1      14.766  24.406  30.503  0.00  0.00     0.034 A 
ATOM     33  C21 non dame1      15.171  24.367  29.163  0.00  0.00     0.025 A 
ATOM     34 Cl1  non dame1      13.054  24.358  30.904  0.00  0.00    -0.084 Cl
ATOM     35  C22 non dame1      16.526  24.404  28.828  0.00  0.00     0.026 A 
ENDBRANCH  26  29
ENDBRANCH   1  26
TORSDOF 9
ENDMDL
MODEL 97
REMARK VINA RESULT:       0.0      0.000      0.000
REMARK NAME 24392427_Accepted
REMARK  5 active torsions:
REMARK  status: ('A' for Active; 'I' for Inactive)
REMARK       I    between atoms: C2_2  and  N1_3 
REMARK    1  A    between atoms: N1_3  and  C3_4 
REMARK    2  A    between atoms: C4_5  and  C5_6 
REMARK    3  A    between atoms: C6_9  and  S1_12 
REMARK    4  A    between atoms: S1_12  and  C8_13 
REMARK    5  A    between atoms: C8_13  and  C9_14 
ROOT
ATOM      1  C5  non dame1      21.485  28.290  36.753  0.00  0.00     0.189 A 
ATOM      2  N2  non dame1      22.048  29.468  36.659  0.00  0.00    -0.127 NA
ATOM      3  N3  non dame1      21.010  30.384  36.583  0.00  0.00    -0.122 NA
ATOM      4  C6  non dame1      19.879  29.713  36.635  0.00  0.00     0.191 A 
ATOM      5  N4  non dame1      20.166  28.395  36.748  0.00  0.00    -0.310 N 
ATOM      6  C7  non dame1      19.236  27.298  36.847  0.00  0.00     0.160 C 
ENDROOT
BRANCH   1   7
ATOM      7  C4  non dame1      22.167  27.113  36.843  0.00  0.00     0.182 A 
ATOM      8  C3  non dame1      22.673  26.210  35.840  0.00  0.00     0.195 A 
ATOM      9  N6  non dame1      23.305  25.211  36.469  0.00  0.00    -0.084 NA
ATOM     10  O1  non dame1      23.171  25.464  37.821  0.00  0.00    -0.104 OA
ATOM     11  N5  non dame1      22.468  26.628  38.047  0.00  0.00    -0.097 NA
BRANCH   8  12
ATOM     12  N1  non dame1      22.615  26.204  34.400  0.00  0.00    -0.308 N 
ATOM     13  C2  non dame1      21.508  25.711  33.761  0.00  0.00     0.219 C 
ATOM     14  C1  non dame1      21.448  25.705  32.271  0.00  0.00     0.117 C 
ATOM     15  O2  non dame1      20.570  25.278  34.414  0.00  0.00    -0.274 OA
ATOM     16  H4  non dame1      23.367  26.554  33.824  0.00  0.00     0.170 HD
ENDBRANCH   8  12
ENDBRANCH   1   7
BRANCH   4  17
ATOM     17  S1  non dame1      18.162  30.230  36.584  0.00  0.00    -0.085 SA
BRANCH  17  18
ATOM     18  C8  non dame1      18.134  30.510  34.783  0.00  0.00     0.124 C 
BRANCH  18  19
ATOM     19  C9  non dame1      17.632  29.289  34.102  0.00  0.00    -0.010 A 
ATOM     20  C10 non dame1      16.257  28.995  34.094  0.00  0.00     0.011 A 
ATOM     21  C11 non dame1      15.787  27.839  33.463  0.00  0.00     0.001 A 
ATOM     22  C12 non dame1      16.679  26.968  32.832  0.00  0.00     0.003 A 
ATOM     23  C13 non dame1      18.047  27.265  32.833  0.00  0.00     0.043 A 
ATOM     24  C14 non dame1      18.526  28.417  33.457  0.00  0.00     0.123 A 
ATOM     25  F1  non dame1      19.866  28.712  33.453  0.00  0.00    -0.206 F 
ENDBRANCH  18  19
ENDBRANCH  17  18
ENDBRANCH   4  17
TORSDOF 5
ENDMDL
MODEL 98
REMARK VINA RESULT:       0.0      6.653      8.471
REMARK NAME 24392427_Accepted
REMARK  5 active torsions:
REMARK  status: ('A' for Active; 'I' for Inactive)
REMARK       I    between atoms: C2_2  and  N1_3 
REMARK    1  A    between atoms: N1_3  and  C3_4 
REMARK    2  A    between atoms: C4_5  and  C5_6 
REMARK    3  A    between atoms: C6_9  and  S1_12 
REMARK    4  A    between atoms: S1_12  and  C8_13 
REMARK    5  A    between atoms: C8_13  and  C9_14 
ROOT
ATOM      1  C5  non dame1      19.582  21.173  41.130  0.00  0.00     0.189 A 
ATOM      2  N2  non dame1      20.406  20.500  41.892  0.00  0.00    -0.127 NA
ATOM      3  N3  non dame1      21.539  21.289  42.022  0.00  0.00    -0.122 NA
ATOM      4  C6  non dame1      21.339  22.393  41.334  0.00  0.00     0.191 A 
ATOM      5  N4  non dame1      20.109  22.334  40.774  0.00  0.00    -0.310 N 
ATOM      6  C7  non dame1      19.471  23.327  39.947  0.00  0.00     0.160 C 
ENDROOT
BRANCH   1   7
ATOM      7  C4  non dame1      18.347  20.736  40.754  0.00  0.00     0.182 A 
ATOM      8  C3  non dame1      17.902  19.943  39.635  0.00  0.00     0.195 A 
ATOM      9  N6  non dame1      16.579  19.769  39.757  0.00  0.00    -0.084 NA
ATOM     10  O1  non dame1      16.205  20.458  40.895  0.00  0.00    -0.104 OA
ATOM     11  N5  non dame1      17.291  21.055  41.501  0.00  0.00    -0.097 NA
BRANCH   8  12
ATOM     12  N1  non dame1      18.584  19.359  38.508  0.00  0.00    -0.308 N 
ATOM     13  C2  non dame1      18.842  20.117  37.397  0.00  0.00     0.219 C 
ATOM     14  C1  non dame1      19.548  19.513  36.230  0.00  0.00     0.117 C 
ATOM     15  O2  non dame1      18.495  21.289  37.363  0.00  0.00    -0.274 OA
ATOM     16  H4  non dame1      18.888  18.396  38.496  0.00  0.00     0.170 HD
ENDBRANCH   8  12
ENDBRANCH   1   7
BRANCH   4  17
ATOM     17  S1  non dame1      22.359  23.841  41.050  0.00  0.00    -0.085 SA
BRANCH  17  18
ATOM     18  C8  non dame1      23.432  23.040  39.814  0.00  0.00     0.124 C 
BRANCH  18  19
ATOM     19  C9  non dame1      22.911  23.321  38.451  0.00  0.00    -0.010 A 
ATOM     20  C10 non dame1      23.131  24.574  37.852  0.00  0.00     0.011 A 
ATOM     21  C11 non dame1      22.629  24.842  36.574  0.00  0.00     0.001 A 
ATOM     22  C12 non dame1      21.910  23.865  35.881  0.00  0.00     0.003 A 
ATOM     23  C13 non dame1      21.699  22.615  36.474  0.00  0.00     0.043 A 
ATOM     24  C14 non dame1      22.197  22.337  37.747  0.00  0.00     0.123 A 
ATOM     25  F1  non dame1      21.995  21.110  38.326  0.00  0.00    -0.206 F 
ENDBRANCH  18  19
ENDBRANCH  17  18
ENDBRANCH   4  17
TORSDOF 5
ENDMDL
MODEL 99
REMARK VINA RESULT:       0.0      4.321      6.360
REMARK NAME 24392427_Accepted
REMARK  5 active torsions:
REMARK  status: ('A' for Active; 'I' for Inactive)
REMARK       I    between atoms: C2_2  and  N1_3 
REMARK    1  A    between atoms: N1_3  and  C3_4 
REMARK    2  A    between atoms: C4_5  and  C5_6 
REMARK    3  A    between atoms: C6_9  and  S1_12 
REMARK    4  A    between atoms: S1_12  and  C8_13 
REMARK    5  A    between atoms: C8_13  and  C9_14 
ROOT
ATOM      1  C5  non dame1      21.684  23.417  39.956  0.00  0.00     0.189 A 
ATOM      2  N2  non dame1      22.011  22.235  39.499  0.00  0.00    -0.127 NA
ATOM      3  N3  non dame1      22.959  22.454  38.512  0.00  0.00    -0.122 NA
ATOM      4  C6  non dame1      23.155  23.753  38.426  0.00  0.00     0.191 A 
ATOM      5  N4  non dame1      22.362  24.368  39.335  0.00  0.00    -0.310 N 
ATOM      6  C7  non dame1      22.257  25.782  39.597  0.00  0.00     0.160 C 
ENDROOT
BRANCH   1   7
ATOM      7  C4  non dame1      20.767  23.638  40.941  0.00  0.00     0.182 A 
ATOM      8  C3  non dame1      19.340  23.837  40.906  0.00  0.00     0.195 A 
ATOM      9  N6  non dame1      18.915  23.975  42.168  0.00  0.00    -0.084 NA
ATOM     10  O1  non dame1      20.042  23.898  42.964  0.00  0.00    -0.104 OA
ATOM     11  N5  non dame1      21.178  23.696  42.207  0.00  0.00    -0.097 NA
BRANCH   8  12
ATOM     12  N1  non dame1      18.381  23.906  39.832  0.00  0.00    -0.308 N 
ATOM     13  C2  non dame1      18.193  25.082  39.157  0.00  0.00     0.219 C 
ATOM     14  C1  non dame1      17.200  25.155  38.046  0.00  0.00     0.117 C 
ATOM     15  O2  non dame1      18.840  26.073  39.466  0.00  0.00    -0.274 OA
ATOM     16  H4  non dame1      17.828  23.111  39.546  0.00  0.00     0.170 HD
ENDBRANCH   8  12
ENDBRANCH   1   7
BRANCH   4  17
ATOM     17  S1  non dame1      24.219  24.749  37.381  0.00  0.00    -0.085 SA
BRANCH  17  18
ATOM     18  C8  non dame1      23.159  24.620  35.905  0.00  0.00     0.124 C 
BRANCH  18  19
ATOM     19  C9  non dame1      22.250  25.793  35.845  0.00  0.00    -0.010 A 
ATOM     20  C10 non dame1      22.730  27.041  35.410  0.00  0.00     0.011 A 
ATOM     21  C11 non dame1      21.877  28.149  35.366  0.00  0.00     0.001 A 
ATOM     22  C12 non dame1      20.539  28.023  35.750  0.00  0.00     0.003 A 
ATOM     23  C13 non dame1      20.059  26.778  36.175  0.00  0.00     0.043 A 
ATOM     24  C14 non dame1      20.902  25.667  36.220  0.00  0.00     0.123 A 
ATOM     25  F1  non dame1      20.430  24.446  36.631  0.00  0.00    -0.206 F 
ENDBRANCH  18  19
ENDBRANCH  17  18
ENDBRANCH   4  17
TORSDOF 5
ENDMDL
MODEL 100
REMARK VINA RESULT:      -0.0      0.000      0.000
REMARK NAME 24343902_Intermediate
REMARK  4 active torsions:
REMARK  status: ('A' for Active; 'I' for Inactive)
REMARK    1  A    between atoms: O1_1  and  N1_2 
REMARK    2  A    between atoms: N1_2  and  C1_3 
REMARK    3  A    between atoms: C2_4  and  N2_14 
REMARK    4  A    between atoms: N2_14  and  C10_15 
ROOT
ATOM      1  C1  non dame1      14.754  26.919  30.080  0.00  0.00     0.332 A 
ATOM      2  C2  non dame1      15.413  27.764  29.276  0.00  0.00     0.100 A 
ATOM      3  C3  non dame1      16.866  27.822  29.325  0.00  0.00     0.028 A 
ATOM      4  C4  non dame1      17.594  28.676  28.499  0.00  0.00     0.017 A 
ATOM      5  C5  non dame1      18.989  28.701  28.581  0.00  0.00     0.001 A 
ATOM      6  C6  non dame1      19.664  27.873  29.486  0.00  0.00     0.003 A 
ATOM      7  C7  non dame1      18.949  27.014  30.322  0.00  0.00     0.038 A 
ATOM      8  C8  non dame1      17.552  27.004  30.224  0.00  0.00     0.092 A 
ATOM      9  O2  non dame1      16.832  26.133  31.076  0.00  0.00    -0.272 OA
ATOM     10  C9  non dame1      15.452  26.053  31.043  0.00  0.00     0.337 A 
ATOM     11  O3  non dame1      14.976  25.263  31.828  0.00  0.00    -0.256 OA
ENDROOT
BRANCH   2  12
ATOM     12  N2  non dame1      14.635  28.590  28.387  0.00  0.00    -0.338 N 
ATOM     13  H7  non dame1      14.447  28.274  27.447  0.00  0.00     0.167 HD
BRANCH  12  14
ATOM     14  C10 non dame1      14.127  29.871  28.846  0.00  0.00     0.127 A 
ATOM     15  C11 non dame1      14.779  31.065  28.437  0.00  0.00     0.050 A 
ATOM     16  C12 non dame1      14.279  32.288  28.875  0.00  0.00     0.005 A 
ATOM     17  C13 non dame1      13.165  32.288  29.722  0.00  0.00     0.019 A 
ATOM     18  C14 non dame1      12.575  31.077  30.084  0.00  0.00     0.119 A 
ATOM     19  N3  non dame1      13.051  29.899  29.647  0.00  0.00    -0.243 NA
ENDBRANCH  12  14
ENDBRANCH   2  12
BRANCH   1  20
ATOM     20  N1  non dame1      13.317  26.858  29.995  0.00  0.00     0.189 N 
ATOM     21  O4  non dame1      12.914  25.540  29.545  0.00  0.00    -0.032 OA
ATOM     22  H2  non dame1      12.993  27.554  29.338  0.00  0.00     0.411 HD
BRANCH  20  23
ATOM     23  O1  non dame1      12.744  27.119  31.302  0.00  0.00    -0.155 OA
ATOM     24  H1  non dame1      13.308  26.739  31.980  0.00  0.00     0.261 HD
ENDBRANCH  20  23
ENDBRANCH   1  20
TORSDOF 4
ENDMDL
MODEL 101
REMARK VINA RESULT:      -0.0      3.197      5.628
REMARK NAME 24343902_Intermediate
REMARK  4 active torsions:
REMARK  status: ('A' for Active; 'I' for Inactive)
REMARK    1  A    between atoms: O1_1  and  N1_2 
REMARK    2  A    between atoms: N1_2  and  C1_3 
REMARK    3  A    between atoms: C2_4  and  N2_14 
REMARK    4  A    between atoms: N2_14  and  C10_15 
ROOT
ATOM      1  C1  non dame1      18.015  29.380  30.866  0.00  0.00     0.332 A 
ATOM      2  C2  non dame1      17.455  29.378  29.648  0.00  0.00     0.100 A 
ATOM      3  C3  non dame1      16.428  30.356  29.325  0.00  0.00     0.028 A 
ATOM      4  C4  non dame1      15.828  30.401  28.068  0.00  0.00     0.017 A 
ATOM      5  C5  non dame1      14.844  31.356  27.801  0.00  0.00     0.001 A 
ATOM      6  C6  non dame1      14.455  32.272  28.786  0.00  0.00     0.003 A 
ATOM      7  C7  non dame1      15.045  32.239  30.051  0.00  0.00     0.038 A 
ATOM      8  C8  non dame1      16.029  31.274  30.298  0.00  0.00     0.092 A 
ATOM      9  O2  non dame1      16.622  31.244  31.582  0.00  0.00    -0.272 OA
ATOM     10  C9  non dame1      17.606  30.329  31.912  0.00  0.00     0.337 A 
ATOM     11  O3  non dame1      18.019  30.425  33.047  0.00  0.00    -0.256 OA
ENDROOT
BRANCH   2  12
ATOM     12  N2  non dame1      17.907  28.388  28.703  0.00  0.00    -0.338 N 
ATOM     13  H7  non dame1      18.652  28.614  28.061  0.00  0.00     0.167 HD
BRANCH  12  14
ATOM     14  C10 non dame1      17.289  27.074  28.679  0.00  0.00     0.127 A 
ATOM     15  C11 non dame1      16.345  26.768  27.663  0.00  0.00     0.050 A 
ATOM     16  C12 non dame1      15.765  25.502  27.642  0.00  0.00     0.005 A 
ATOM     17  C13 non dame1      16.121  24.590  28.642  0.00  0.00     0.019 A 
ATOM     18  C14 non dame1      17.055  24.959  29.610  0.00  0.00     0.119 A 
ATOM     19  N3  non dame1      17.624  26.175  29.618  0.00  0.00    -0.243 NA
ENDBRANCH  12  14
ENDBRANCH   2  12
BRANCH   1  20
ATOM     20  N1  non dame1      19.050  28.420  31.157  0.00  0.00     0.189 N 
ATOM     21  O4  non dame1      20.293  29.116  31.426  0.00  0.00    -0.032 OA
ATOM     22  H2  non dame1      19.169  27.809  30.361  0.00  0.00     0.411 HD
BRANCH  20  23
ATOM     23  O1  non dame1      18.672  27.637  32.318  0.00  0.00    -0.155 OA
ATOM     24  H1  non dame1      18.991  26.738  32.215  0.00  0.00     0.261 HD
ENDBRANCH  20  23
ENDBRANCH   1  20
TORSDOF 4
ENDMDL
MODEL 102
REMARK VINA RESULT:      -0.0      2.836      5.746
REMARK NAME 24343902_Intermediate
REMARK  4 active torsions:
REMARK  status: ('A' for Active; 'I' for Inactive)
REMARK    1  A    between atoms: O1_1  and  N1_2 
REMARK    2  A    between atoms: N1_2  and  C1_3 
REMARK    3  A    between atoms: C2_4  and  N2_14 
REMARK    4  A    between atoms: N2_14  and  C10_15 
ROOT
ATOM      1  C1  non dame1      16.833  27.370  28.445  0.00  0.00     0.332 A 
ATOM      2  C2  non dame1      17.464  28.448  28.931  0.00  0.00     0.100 A 
ATOM      3  C3  non dame1      16.857  29.762  28.791  0.00  0.00     0.028 A 
ATOM      4  C4  non dame1      17.470  30.910  29.291  0.00  0.00     0.017 A 
ATOM      5  C5  non dame1      16.852  32.153  29.133  0.00  0.00     0.001 A 
ATOM      6  C6  non dame1      15.621  32.258  28.476  0.00  0.00     0.003 A 
ATOM      7  C7  non dame1      14.995  31.119  27.966  0.00  0.00     0.038 A 
ATOM      8  C8  non dame1      15.630  29.883  28.136  0.00  0.00     0.092 A 
ATOM      9  O2  non dame1      14.992  28.731  27.616  0.00  0.00    -0.272 OA
ATOM     10  C9  non dame1      15.545  27.470  27.742  0.00  0.00     0.337 A 
ATOM     11  O3  non dame1      14.884  26.581  27.249  0.00  0.00    -0.256 OA
ENDROOT
BRANCH   2  12
ATOM     12  N2  non dame1      18.736  28.247  29.578  0.00  0.00    -0.338 N 
ATOM     13  H7  non dame1      18.772  28.115  30.579  0.00  0.00     0.167 HD
BRANCH  12  14
ATOM     14  C10 non dame1      19.956  28.234  28.792  0.00  0.00     0.127 A 
ATOM     15  C11 non dame1      20.792  29.382  28.787  0.00  0.00     0.050 A 
ATOM     16  C12 non dame1      21.965  29.358  28.036  0.00  0.00     0.005 A 
ATOM     17  C13 non dame1      22.259  28.207  27.297  0.00  0.00     0.019 A 
ATOM     18  C14 non dame1      21.391  27.115  27.347  0.00  0.00     0.119 A 
ATOM     19  N3  non dame1      20.268  27.137  28.085  0.00  0.00    -0.243 NA
ENDBRANCH  12  14
ENDBRANCH   2  12
BRANCH   1  20
ATOM     20  N1  non dame1      17.438  26.073  28.619  0.00  0.00     0.189 N 
ATOM     21  O4  non dame1      16.590  25.252  29.460  0.00  0.00    -0.032 OA
ATOM     22  H2  non dame1      18.342  26.185  29.056  0.00  0.00     0.411 HD
BRANCH  20  23
ATOM     23  O1  non dame1      17.599  25.438  27.325  0.00  0.00    -0.155 OA
ATOM     24  H1  non dame1      18.344  24.833  27.356  0.00  0.00     0.261 HD
ENDBRANCH  20  23
ENDBRANCH   1  20
TORSDOF 4
ENDMDL
MODEL 103
REMARK VINA RESULT:      -0.0      0.000      0.000
REMARK NAME 24281770_Intermediate
REMARK  7 active torsions:
REMARK  status: ('A' for Active; 'I' for Inactive)
REMARK    1  A    between atoms: C2_2  and  C3_3 
REMARK    2  A    between atoms: C3_3  and  C4_4 
REMARK    3  A    between atoms: C7_7  and  C8_8 
REMARK    4  A    between atoms: C11_11  and  C14_14 
REMARK    5  A    between atoms: C14_14  and  O2_16 
REMARK    6  A    between atoms: O2_16  and  C15_17 
REMARK    7  A    between atoms: C15_17  and  C16_18 
ROOT
ATOM      1  C8  non dame1      19.357  25.013  36.414  0.00  0.00    -0.007 A 
ATOM      2  C9  non dame1      18.606  23.874  36.078  0.00  0.00     0.015 A 
ATOM      3  C10 non dame1      17.633  23.942  35.076  0.00  0.00     0.018 A 
ATOM      4  C11 non dame1      17.397  25.144  34.404  0.00  0.00     0.039 A 
ATOM      5  C12 non dame1      18.141  26.280  34.744  0.00  0.00     0.018 A 
ATOM      6  C13 non dame1      19.114  26.224  35.744  0.00  0.00     0.015 A 
ENDROOT
BRANCH   1   7
ATOM      7  C7  non dame1      20.359  24.941  37.428  0.00  0.00     0.066 A 
ATOM      8  C6  non dame1      20.595  23.758  38.127  0.00  0.00     0.033 A 
ATOM      9  C5  non dame1      21.580  23.728  39.122  0.00  0.00     0.011 A 
ATOM     10  C4  non dame1      22.314  24.886  39.363  0.00  0.00    -0.041 A 
ATOM     11  C20 non dame1      22.014  26.016  38.622  0.00  0.00     0.124 A 
ATOM     12  N1  non dame1      21.057  26.060  37.672  0.00  0.00    -0.260 NA
BRANCH  10  13
ATOM     13  C3  non dame1      23.386  24.930  40.376  0.00  0.00     0.040 C 
BRANCH  13  14
ATOM     14  C2  non dame1      24.363  23.792  40.128  0.00  0.00     0.000 C 
ATOM     15  C1  non dame1      25.328  24.185  39.031  0.00  0.00     0.005 C 
ENDBRANCH  13  14
ENDBRANCH  10  13
ENDBRANCH   1   7
BRANCH   4  16
ATOM     16  C14 non dame1      16.395  25.221  33.363  0.00  0.00     0.293 C 
ATOM     17  O1  non dame1      15.263  24.810  33.573  0.00  0.00    -0.259 OA
BRANCH  16  18
ATOM     18  O2  non dame1      16.712  25.747  32.157  0.00  0.00    -0.311 OA
BRANCH  18  19
ATOM     19  C15 non dame1      17.388  24.773  31.376  0.00  0.00     0.244 C 
BRANCH  19  20
ATOM     20  C16 non dame1      18.719  25.272  31.022  0.00  0.00     0.076 A 
ATOM     21  C17 non dame1      19.821  24.887  31.653  0.00  0.00     0.037 A 
ATOM     22  C18 non dame1      20.866  25.601  31.016  0.00  0.00     0.027 A 
ATOM     23  C19 non dame1      20.282  26.364  30.020  0.00  0.00     0.142 A 
ATOM     24  O3  non dame1      18.927  26.160  30.033  0.00  0.00    -0.325 OA
ENDBRANCH  19  20
ENDBRANCH  18  19
ENDBRANCH  16  18
ENDBRANCH   4  16
TORSDOF 7
ENDMDL
MODEL 104
REMARK VINA RESULT:      -0.0      3.533      5.550
REMARK NAME 24281770_Intermediate
REMARK  7 active torsions:
REMARK  status: ('A' for Active; 'I' for Inactive)
REMARK    1  A    between atoms: C2_2  and  C3_3 
REMARK    2  A    between atoms: C3_3  and  C4_4 
REMARK    3  A    between atoms: C7_7  and  C8_8 
REMARK    4  A    between atoms: C11_11  and  C14_14 
REMARK    5  A    between atoms: C14_14  and  O2_16 
REMARK    6  A    between atoms: O2_16  and  C15_17 
REMARK    7  A    between atoms: C15_17  and  C16_18 
ROOT
ATOM      1  C8  non dame1      19.063  25.892  36.030  0.00  0.00    -0.007 A 
ATOM      2  C9  non dame1      18.054  26.653  36.646  0.00  0.00     0.015 A 
ATOM      3  C10 non dame1      16.737  26.183  36.675  0.00  0.00     0.018 A 
ATOM      4  C11 non dame1      16.413  24.958  36.089  0.00  0.00     0.039 A 
ATOM      5  C12 non dame1      17.417  24.204  35.469  0.00  0.00     0.018 A 
ATOM      6  C13 non dame1      18.735  24.664  35.433  0.00  0.00     0.015 A 
ENDROOT
BRANCH   1   7
ATOM      7  C7  non dame1      20.409  26.364  36.012  0.00  0.00     0.066 A 
ATOM      8  C6  non dame1      20.750  27.597  36.567  0.00  0.00     0.033 A 
ATOM      9  C5  non dame1      22.080  28.032  36.522  0.00  0.00     0.011 A 
ATOM     10  C4  non dame1      23.031  27.198  35.939  0.00  0.00    -0.041 A 
ATOM     11  C20 non dame1      22.606  25.991  35.412  0.00  0.00     0.124 A 
ATOM     12  N1  non dame1      21.324  25.569  35.437  0.00  0.00    -0.260 NA
BRANCH  10  13
ATOM     13  C3  non dame1      24.457  27.570  35.874  0.00  0.00     0.040 C 
BRANCH  13  14
ATOM     14  C2  non dame1      24.945  27.950  37.263  0.00  0.00     0.000 C 
ATOM     15  C1  non dame1      25.271  26.696  38.043  0.00  0.00     0.005 C 
ENDBRANCH  13  14
ENDBRANCH  10  13
ENDBRANCH   1   7
BRANCH   4  16
ATOM     16  C14 non dame1      15.053  24.464  36.118  0.00  0.00     0.293 C 
ATOM     17  O1  non dame1      14.134  25.182  35.752  0.00  0.00    -0.259 OA
BRANCH  16  18
ATOM     18  O2  non dame1      14.800  23.207  36.553  0.00  0.00    -0.311 OA
BRANCH  18  19
ATOM     19  C15 non dame1      14.793  23.187  37.972  0.00  0.00     0.244 C 
BRANCH  19  20
ATOM     20  C16 non dame1      15.822  22.259  38.449  0.00  0.00     0.076 A 
ATOM     21  C17 non dame1      17.002  22.666  38.901  0.00  0.00     0.037 A 
ATOM     22  C18 non dame1      17.684  21.473  39.245  0.00  0.00     0.027 A 
ATOM     23  C19 non dame1      16.822  20.425  38.974  0.00  0.00     0.142 A 
ATOM     24  O3  non dame1      15.653  20.925  38.464  0.00  0.00    -0.325 OA
ENDBRANCH  19  20
ENDBRANCH  18  19
ENDBRANCH  16  18
ENDBRANCH   4  16
TORSDOF 7
ENDMDL
MODEL 105
REMARK VINA RESULT:      -0.0      4.763      8.739
REMARK NAME 24281770_Intermediate
REMARK  7 active torsions:
REMARK  status: ('A' for Active; 'I' for Inactive)
REMARK    1  A    between atoms: C2_2  and  C3_3 
REMARK    2  A    between atoms: C3_3  and  C4_4 
REMARK    3  A    between atoms: C7_7  and  C8_8 
REMARK    4  A    between atoms: C11_11  and  C14_14 
REMARK    5  A    between atoms: C14_14  and  O2_16 
REMARK    6  A    between atoms: O2_16  and  C15_17 
REMARK    7  A    between atoms: C15_17  and  C16_18 
ROOT
ATOM      1  C8  non dame1      21.501  27.352  34.598  0.00  0.00    -0.007 A 
ATOM      2  C9  non dame1      21.773  26.237  35.408  0.00  0.00     0.015 A 
ATOM      3  C10 non dame1      22.632  26.355  36.506  0.00  0.00     0.018 A 
ATOM      4  C11 non dame1      23.230  27.581  36.802  0.00  0.00     0.039 A 
ATOM      5  C12 non dame1      22.966  28.691  35.990  0.00  0.00     0.018 A 
ATOM      6  C13 non dame1      22.111  28.584  34.892  0.00  0.00     0.015 A 
ENDROOT
BRANCH   1   7
ATOM      7  C7  non dame1      20.615  27.236  33.486  0.00  0.00     0.066 A 
ATOM      8  C6  non dame1      20.024  26.016  33.158  0.00  0.00     0.033 A 
ATOM      9  C5  non dame1      19.167  25.937  32.054  0.00  0.00     0.011 A 
ATOM     10  C4  non dame1      18.913  27.098  31.329  0.00  0.00    -0.041 A 
ATOM     11  C20 non dame1      19.541  28.266  31.723  0.00  0.00     0.124 A 
ATOM     12  N1  non dame1      20.380  28.350  32.776  0.00  0.00    -0.260 NA
BRANCH  10  13
ATOM     13  C3  non dame1      18.001  27.106  30.168  0.00  0.00     0.040 C 
BRANCH  13  14
ATOM     14  C2  non dame1      16.669  26.492  30.566  0.00  0.00     0.000 C 
ATOM     15  C1  non dame1      15.829  27.529  31.280  0.00  0.00     0.005 C 
ENDBRANCH  13  14
ENDBRANCH  10  13
ENDBRANCH   1   7
BRANCH   4  16
ATOM     16  C14 non dame1      24.117  27.712  37.938  0.00  0.00     0.293 C 
ATOM     17  O1  non dame1      25.041  26.926  38.086  0.00  0.00    -0.259 OA
BRANCH  16  18
ATOM     18  O2  non dame1      23.921  28.705  38.838  0.00  0.00    -0.311 OA
BRANCH  18  19
ATOM     19  C15 non dame1      22.889  28.334  39.738  0.00  0.00     0.244 C 
BRANCH  19  20
ATOM     20  C16 non dame1      21.801  29.312  39.660  0.00  0.00     0.076 A 
ATOM     21  C17 non dame1      20.683  29.089  38.981  0.00  0.00     0.037 A 
ATOM     22  C18 non dame1      19.918  30.268  39.154  0.00  0.00     0.027 A 
ATOM     23  C19 non dame1      20.661  31.115  39.957  0.00  0.00     0.142 A 
ATOM     24  O3  non dame1      21.852  30.512  40.265  0.00  0.00    -0.325 OA
ENDBRANCH  19  20
ENDBRANCH  18  19
ENDBRANCH  16  18
ENDBRANCH   4  16
TORSDOF 7
ENDMDL
MODEL 106
REMARK VINA RESULT:      -0.0      0.000      0.000
REMARK NAME 87335393_Accepted
REMARK  5 active torsions:
REMARK  status: ('A' for Active; 'I' for Inactive)
REMARK    1  A    between atoms: C2_2  and  C3_3 
REMARK    2  A    between atoms: C2_2  and  C15_16 
REMARK    3  A    between atoms: C2_2  and  O1_23 
REMARK    4  A    between atoms: C3_3  and  C4_4 
REMARK    5  A    between atoms: C3_3  and  C10_10 
ROOT
ATOM      1  C3  non dame1      19.407  23.643  33.852  0.00  0.00     0.109 C 
ENDROOT
BRANCH   1   2
ATOM      2  C2  non dame1      18.978  25.065  34.117  0.00  0.00     0.094 C 
ATOM      3  C1  non dame1      20.017  25.754  34.966  0.00  0.00     0.052 C 
BRANCH   2   4
ATOM      4  C15 non dame1      18.835  25.787  32.826  0.00  0.00    -0.023 A 
ATOM      5  C16 non dame1      18.107  25.212  31.769  0.00  0.00     0.012 A 
ATOM      6  C17 non dame1      17.984  25.886  30.548  0.00  0.00     0.024 A 
ATOM      7  C18 non dame1      18.580  27.137  30.373  0.00  0.00     0.034 A 
ATOM      8  C19 non dame1      19.300  27.712  31.429  0.00  0.00     0.024 A 
ATOM      9 Cl1  non dame1      18.433  27.990  28.843  0.00  0.00    -0.084 Cl
ATOM     10  C20 non dame1      19.427  27.049  32.649  0.00  0.00     0.012 A 
ENDBRANCH   2   4
BRANCH   2  11
ATOM     11  O1  non dame1      17.735  25.064  34.798  0.00  0.00    -0.384 OA
ATOM     12  H18 non dame1      17.028  24.882  34.174  0.00  0.00     0.211 HD
ENDBRANCH   2  11
ENDBRANCH   1   2
BRANCH   1  13
ATOM     13  C4  non dame1      20.889  23.580  33.771  0.00  0.00    -0.045 A 
ATOM     14  C5  non dame1      21.641  23.135  34.871  0.00  0.00     0.008 A 
ATOM     15  C6  non dame1      23.038  23.086  34.797  0.00  0.00     0.001 A 
ATOM     16  C7  non dame1      23.696  23.479  33.627  0.00  0.00     0.000 A 
ATOM     17  C8  non dame1      22.945  23.915  32.529  0.00  0.00     0.001 A 
ATOM     18  C9  non dame1      21.551  23.965  32.592  0.00  0.00     0.008 A 
ENDBRANCH   1  13
BRANCH   1  19
ATOM     19  C10 non dame1      18.935  22.775  34.949  0.00  0.00     0.046 A 
ATOM     20  C11 non dame1      18.277  21.598  34.641  0.00  0.00     0.028 A 
ATOM     21  C12 non dame1      17.850  20.787  35.691  0.00  0.00     0.003 A 
ATOM     22  C13 non dame1      18.088  21.219  37.002  0.00  0.00     0.019 A 
ATOM     23  C14 non dame1      18.758  22.421  37.221  0.00  0.00     0.117 A 
ATOM     24  N1  non dame1      19.182  23.192  36.207  0.00  0.00    -0.265 NA
ENDBRANCH   1  19
TORSDOF 5
ENDMDL
MODEL 107
REMARK VINA RESULT:      -0.0      5.472      8.782
REMARK NAME 87335393_Accepted
REMARK  5 active torsions:
REMARK  status: ('A' for Active; 'I' for Inactive)
REMARK    1  A    between atoms: C2_2  and  C3_3 
REMARK    2  A    between atoms: C2_2  and  C15_16 
REMARK    3  A    between atoms: C2_2  and  O1_23 
REMARK    4  A    between atoms: C3_3  and  C4_4 
REMARK    5  A    between atoms: C3_3  and  C10_10 
ROOT
ATOM      1  C3  non dame1      14.924  28.867  31.997  0.00  0.00     0.109 C 
ENDROOT
BRANCH   1   2
ATOM      2  C2  non dame1      16.236  28.301  32.482  0.00  0.00     0.094 C 
ATOM      3  C1  non dame1      16.626  28.975  33.773  0.00  0.00     0.052 C 
BRANCH   2   4
ATOM      4  C15 non dame1      16.090  26.840  32.709  0.00  0.00    -0.023 A 
ATOM      5  C16 non dame1      15.508  26.023  31.723  0.00  0.00     0.012 A 
ATOM      6  C17 non dame1      15.359  24.649  31.943  0.00  0.00     0.024 A 
ATOM      7  C18 non dame1      15.791  24.078  33.142  0.00  0.00     0.034 A 
ATOM      8  C19 non dame1      16.376  24.891  34.122  0.00  0.00     0.024 A 
ATOM      9 Cl1  non dame1      15.605  22.354  33.429  0.00  0.00    -0.084 Cl
ATOM     10  C20 non dame1      16.531  26.261  33.911  0.00  0.00     0.012 A 
ENDBRANCH   2   4
BRANCH   2  11
ATOM     11  O1  non dame1      17.239  28.530  31.506  0.00  0.00    -0.384 OA
ATOM     12  H18 non dame1      17.937  29.069  31.885  0.00  0.00     0.211 HD
ENDBRANCH   2  11
ENDBRANCH   1   2
BRANCH   1  13
ATOM     13  C4  non dame1      14.082  29.235  33.163  0.00  0.00    -0.045 A 
ATOM     14  C5  non dame1      13.999  30.572  33.585  0.00  0.00     0.008 A 
ATOM     15  C6  non dame1      13.213  30.916  34.692  0.00  0.00     0.001 A 
ATOM     16  C7  non dame1      12.504  29.931  35.385  0.00  0.00     0.000 A 
ATOM     17  C8  non dame1      12.580  28.599  34.959  0.00  0.00     0.001 A 
ATOM     18  C9  non dame1      13.360  28.247  33.856  0.00  0.00     0.008 A 
ENDBRANCH   1  13
BRANCH   1  19
ATOM     19  C10 non dame1      15.180  30.067  31.175  0.00  0.00     0.046 A 
ATOM     20  C11 non dame1      14.563  30.184  29.942  0.00  0.00     0.028 A 
ATOM     21  C12 non dame1      14.809  31.329  29.188  0.00  0.00     0.003 A 
ATOM     22  C13 non dame1      15.687  32.288  29.706  0.00  0.00     0.019 A 
ATOM     23  C14 non dame1      16.267  32.088  30.957  0.00  0.00     0.117 A 
ATOM     24  N1  non dame1      16.016  30.991  31.689  0.00  0.00    -0.265 NA
ENDBRANCH   1  19
TORSDOF 5
ENDMDL
MODEL 108
REMARK VINA RESULT:      -0.0      4.352      7.285
REMARK NAME 87335393_Accepted
REMARK  5 active torsions:
REMARK  status: ('A' for Active; 'I' for Inactive)
REMARK    1  A    between atoms: C2_2  and  C3_3 
REMARK    2  A    between atoms: C2_2  and  C15_16 
REMARK    3  A    between atoms: C2_2  and  O1_23 
REMARK    4  A    between atoms: C3_3  and  C4_4 
REMARK    5  A    between atoms: C3_3  and  C10_10 
ROOT
ATOM      1  C3  non dame1      22.980  26.284  30.634  0.00  0.00     0.109 C 
ENDROOT
BRANCH   1   2
ATOM      2  C2  non dame1      23.440  25.070  31.403  0.00  0.00     0.094 C 
ATOM      3  C1  non dame1      23.377  25.359  32.882  0.00  0.00     0.052 C 
BRANCH   2   4
ATOM      4  C15 non dame1      22.557  23.919  31.084  0.00  0.00    -0.023 A 
ATOM      5  C16 non dame1      22.256  23.605  29.747  0.00  0.00     0.012 A 
ATOM      6  C17 non dame1      21.414  22.528  29.447  0.00  0.00     0.024 A 
ATOM      7  C18 non dame1      20.869  21.755  30.475  0.00  0.00     0.034 A 
ATOM      8  C19 non dame1      21.174  22.065  31.807  0.00  0.00     0.024 A 
ATOM      9 Cl1  non dame1      19.807  20.403  30.110  0.00  0.00    -0.084 Cl
ATOM     10  C20 non dame1      22.014  23.135  32.115  0.00  0.00     0.012 A 
ENDBRANCH   2   4
BRANCH   2  11
ATOM     11  O1  non dame1      24.775  24.759  31.039  0.00  0.00    -0.384 OA
ATOM     12  H18 non dame1      24.769  24.128  30.316  0.00  0.00     0.211 HD
ENDBRANCH   2  11
ENDBRANCH   1   2
BRANCH   1  13
ATOM     13  C4  non dame1      21.940  27.000  31.416  0.00  0.00    -0.045 A 
ATOM     14  C5  non dame1      22.272  28.146  32.156  0.00  0.00     0.008 A 
ATOM     15  C6  non dame1      21.292  28.814  32.901  0.00  0.00     0.001 A 
ATOM     16  C7  non dame1      19.975  28.346  32.913  0.00  0.00     0.000 A 
ATOM     17  C8  non dame1      19.643  27.208  32.168  0.00  0.00     0.001 A 
ATOM     18  C9  non dame1      20.612  26.537  31.420  0.00  0.00     0.008 A 
ENDBRANCH   1  13
BRANCH   1  19
ATOM     19  C10 non dame1      24.128  27.183  30.401  0.00  0.00     0.046 A 
ATOM     20  C11 non dame1      24.351  27.675  29.127  0.00  0.00     0.028 A 
ATOM     21  C12 non dame1      25.433  28.530  28.931  0.00  0.00     0.003 A 
ATOM     22  C13 non dame1      26.251  28.828  30.029  0.00  0.00     0.019 A 
ATOM     23  C14 non dame1      25.953  28.287  31.277  0.00  0.00     0.117 A 
ATOM     24  N1  non dame1      24.901  27.475  31.466  0.00  0.00    -0.265 NA
ENDBRANCH   1  19
TORSDOF 5
ENDMDL
MODEL 109
REMARK VINA RESULT:       0.0      0.000      0.000
REMARK NAME 124949582_Intermediate
REMARK  6 active torsions:
REMARK  status: ('A' for Active; 'I' for Inactive)
REMARK    1  A    between atoms: C2_2  and  C4_4 
REMARK    2  A    between atoms: C4_4  and  C5_5 
REMARK    3  A    between atoms: C4_4  and  N6_25 
REMARK       I    between atoms: N3_11  and  C11_15 
REMARK    4  A    between atoms: C11_15  and  C12_16 
REMARK    5  A    between atoms: C16_21  and  S1_22 
REMARK       I    between atoms: N6_25  and  C18_26 
REMARK    6  A    between atoms: C18_26  and  C19_27 
ROOT
ATOM      1  C5  non dame1      20.558  29.456  29.623  0.00  0.00     0.153 A 
ATOM      2  N1  non dame1      21.250  30.335  28.913  0.00  0.00    -0.133 NA
ATOM      3  N2  non dame1      20.431  31.292  28.592  0.00  0.00    -0.135 NA
ATOM      4  C6  non dame1      19.218  31.019  29.116  0.00  0.00     0.131 A 
ATOM      5  C7  non dame1      17.985  31.841  28.883  0.00  0.00     0.100 C 
ATOM      6  C8  non dame1      16.828  31.021  28.302  0.00  0.00     0.134 C 
ATOM      7  N3  non dame1      16.205  30.072  29.265  0.00  0.00    -0.346 N 
ATOM      8  C9  non dame1      17.021  28.862  29.569  0.00  0.00     0.146 C 
ATOM      9  C10 non dame1      18.228  29.138  30.470  0.00  0.00     0.152 C 
ATOM     10  N4  non dame1      19.303  29.841  29.765  0.00  0.00    -0.317 N 
ATOM     11  C11 non dame1      14.990  30.262  29.843  0.00  0.00     0.256 C 
ATOM     12  O1  non dame1      14.338  31.262  29.581  0.00  0.00    -0.267 OA
ENDROOT
BRANCH   1  13
ATOM     13  C4  non dame1      21.114  28.219  30.177  0.00  0.00     0.160 C 
BRANCH  13  14
ATOM     14  C2  non dame1      22.252  27.717  29.269  0.00  0.00     0.008 C 
ATOM     15  C1  non dame1      23.576  27.823  30.010  0.00  0.00     0.012 C 
ATOM     16  C3  non dame1      21.998  26.264  28.893  0.00  0.00     0.012 C 
ENDBRANCH  13  14
BRANCH  13  17
ATOM     17  N6  non dame1      21.636  28.476  31.513  0.00  0.00    -0.345 N 
ATOM     18  C18 non dame1      21.123  27.800  32.589  0.00  0.00     0.254 C 
ATOM     19  O3  non dame1      20.228  26.982  32.427  0.00  0.00    -0.268 OA
ATOM     20  H23 non dame1      22.373  29.140  31.700  0.00  0.00     0.163 HD
BRANCH  18  21
ATOM     21  C19 non dame1      21.621  28.046  33.876  0.00  0.00     0.056 A 
ATOM     22  C20 non dame1      22.934  28.506  34.134  0.00  0.00     0.043 A 
ATOM     23  C21 non dame1      23.049  28.644  35.506  0.00  0.00     0.142 A 
ATOM     24  O2  non dame1      21.869  28.275  36.095  0.00  0.00    -0.334 OA
ATOM     25  C22 non dame1      21.013  27.918  35.103  0.00  0.00     0.158 A 
ENDBRANCH  18  21
ENDBRANCH  13  17
ENDBRANCH   1  13
BRANCH  11  26
ATOM     26  C12 non dame1      14.465  29.273  30.776  0.00  0.00     0.067 A 
ATOM     27  C13 non dame1      13.755  28.165  30.324  0.00  0.00     0.021 A 
ATOM     28  C14 non dame1      13.251  27.261  31.266  0.00  0.00     0.020 A 
ATOM     29  C15 non dame1      13.490  27.475  32.622  0.00  0.00     0.118 A 
ATOM     30  N5  non dame1      14.188  28.534  33.060  0.00  0.00    -0.253 NA
ATOM     31  C16 non dame1      14.656  29.409  32.145  0.00  0.00     0.108 A 
BRANCH  31  32
ATOM     32  S1  non dame1      15.565  30.810  32.684  0.00  0.00    -0.114 SA
ATOM     33  C17 non dame1      16.590  29.892  33.853  0.00  0.00     0.097 C 
ENDBRANCH  31  32
ENDBRANCH  11  26
TORSDOF 6
ENDMDL
MODEL 110
REMARK VINA RESULT:       0.0      4.562      6.478
REMARK NAME 124949582_Intermediate
REMARK  6 active torsions:
REMARK  status: ('A' for Active; 'I' for Inactive)
REMARK    1  A    between atoms: C2_2  and  C4_4 
REMARK    2  A    between atoms: C4_4  and  C5_5 
REMARK    3  A    between atoms: C4_4  and  N6_25 
REMARK       I    between atoms: N3_11  and  C11_15 
REMARK    4  A    between atoms: C11_15  and  C12_16 
REMARK    5  A    between atoms: C16_21  and  S1_22 
REMARK       I    between atoms: N6_25  and  C18_26 
REMARK    6  A    between atoms: C18_26  and  C19_27 
ROOT
ATOM      1  C5  non dame1      18.265  28.124  36.153  0.00  0.00     0.153 A 
ATOM      2  N1  non dame1      19.338  28.846  35.865  0.00  0.00    -0.133 NA
ATOM      3  N2  non dame1      19.020  29.616  34.866  0.00  0.00    -0.135 NA
ATOM      4  C6  non dame1      17.733  29.384  34.532  0.00  0.00     0.131 A 
ATOM      5  C7  non dame1      17.030  30.011  33.365  0.00  0.00     0.100 C 
ATOM      6  C8  non dame1      16.438  28.973  32.404  0.00  0.00     0.134 C 
ATOM      7  N3  non dame1      15.248  28.254  32.937  0.00  0.00    -0.346 N 
ATOM      8  C9  non dame1      15.548  27.237  33.984  0.00  0.00     0.146 C 
ATOM      9  C10 non dame1      15.917  27.837  35.344  0.00  0.00     0.152 C 
ATOM     10  N4  non dame1      17.259  28.424  35.351  0.00  0.00    -0.317 N 
ATOM     11  C11 non dame1      13.973  28.483  32.525  0.00  0.00     0.256 C 
ATOM     12  O1  non dame1      13.749  29.322  31.666  0.00  0.00    -0.267 OA
ENDROOT
BRANCH   1  13
ATOM     13  C4  non dame1      18.204  27.122  37.220  0.00  0.00     0.160 C 
BRANCH  13  14
ATOM     14  C2  non dame1      19.599  26.502  37.421  0.00  0.00     0.008 C 
ATOM     15  C1  non dame1      20.150  26.921  38.776  0.00  0.00     0.012 C 
ATOM     16  C3  non dame1      19.493  24.985  37.364  0.00  0.00     0.012 C 
ENDBRANCH  13  14
BRANCH  13  17
ATOM     17  N6  non dame1      17.771  27.758  38.458  0.00  0.00    -0.345 N 
ATOM     18  C18 non dame1      16.614  27.349  39.068  0.00  0.00     0.254 C 
ATOM     19  O3  non dame1      15.947  26.452  38.573  0.00  0.00    -0.268 OA
ATOM     20  H23 non dame1      18.287  28.501  38.907  0.00  0.00     0.163 HD
BRANCH  18  21
ATOM     21  C19 non dame1      16.194  27.959  40.259  0.00  0.00     0.056 A 
ATOM     22  C20 non dame1      17.065  28.644  41.139  0.00  0.00     0.043 A 
ATOM     23  C21 non dame1      16.290  29.118  42.183  0.00  0.00     0.142 A 
ATOM     24  O2  non dame1      14.989  28.739  41.984  0.00  0.00    -0.334 OA
ATOM     25  C22 non dame1      14.941  28.042  40.819  0.00  0.00     0.158 A 
ENDBRANCH  18  21
ENDBRANCH  13  17
ENDBRANCH   1  13
BRANCH  11  26
ATOM     26  C12 non dame1      12.873  27.726  33.109  0.00  0.00     0.067 A 
ATOM     27  C13 non dame1      12.504  26.485  32.599  0.00  0.00     0.021 A 
ATOM     28  C14 non dame1      11.423  25.814  33.182  0.00  0.00     0.020 A 
ATOM     29  C15 non dame1      10.762  26.386  34.268  0.00  0.00     0.118 A 
ATOM     30  N5  non dame1      11.126  27.575  34.773  0.00  0.00    -0.253 NA
ATOM     31  C16 non dame1      12.160  28.222  34.193  0.00  0.00     0.108 A 
BRANCH  31  32
ATOM     32  S1  non dame1      12.656  29.783  34.822  0.00  0.00    -0.114 SA
ATOM     33  C17 non dame1      12.605  29.276  36.554  0.00  0.00     0.097 C 
ENDBRANCH  31  32
ENDBRANCH  11  26
TORSDOF 6
ENDMDL
MODEL 111
REMARK VINA RESULT:       0.0      7.148      9.285
REMARK NAME 124949582_Intermediate
REMARK  6 active torsions:
REMARK  status: ('A' for Active; 'I' for Inactive)
REMARK    1  A    between atoms: C2_2  and  C4_4 
REMARK    2  A    between atoms: C4_4  and  C5_5 
REMARK    3  A    between atoms: C4_4  and  N6_25 
REMARK       I    between atoms: N3_11  and  C11_15 
REMARK    4  A    between atoms: C11_15  and  C12_16 
REMARK    5  A    between atoms: C16_21  and  S1_22 
REMARK       I    between atoms: N6_25  and  C18_26 
REMARK    6  A    between atoms: C18_26  and  C19_27 
ROOT
ATOM      1  C5  non dame1      18.997  26.028  38.627  0.00  0.00     0.153 A 
ATOM      2  N1  non dame1      19.826  26.224  37.611  0.00  0.00    -0.133 NA
ATOM      3  N2  non dame1      19.107  26.641  36.611  0.00  0.00    -0.135 NA
ATOM      4  C6  non dame1      17.819  26.721  37.005  0.00  0.00     0.131 A 
ATOM      5  C7  non dame1      16.674  27.073  36.104  0.00  0.00     0.100 C 
ATOM      6  C8  non dame1      15.577  26.001  36.095  0.00  0.00     0.134 C 
ATOM      7  N3  non dame1      14.776  25.933  37.348  0.00  0.00    -0.346 N 
ATOM      8  C9  non dame1      15.482  25.321  38.509  0.00  0.00     0.146 C 
ATOM      9  C10 non dame1      16.556  26.221  39.127  0.00  0.00     0.152 C 
ATOM     10  N4  non dame1      17.754  26.319  38.290  0.00  0.00    -0.317 N 
ATOM     11  C11 non dame1      13.500  26.386  37.461  0.00  0.00     0.256 C 
ATOM     12  O1  non dame1      12.940  26.886  36.496  0.00  0.00    -0.267 OA
ENDROOT
BRANCH   1  13
ATOM     13  C4  non dame1      19.407  25.549  39.949  0.00  0.00     0.160 C 
BRANCH  13  14
ATOM     14  C2  non dame1      20.625  24.619  39.802  0.00  0.00     0.008 C 
ATOM     15  C1  non dame1      21.853  25.291  40.400  0.00  0.00     0.012 C 
ATOM     16  C3  non dame1      20.357  23.312  40.533  0.00  0.00     0.012 C 
ENDBRANCH  13  14
BRANCH  13  17
ATOM     17  N6  non dame1      19.763  26.686  40.788  0.00  0.00    -0.345 N 
ATOM     18  C18 non dame1      19.083  26.914  41.956  0.00  0.00     0.254 C 
ATOM     19  O3  non dame1      18.179  26.162  42.292  0.00  0.00    -0.268 OA
ATOM     20  H23 non dame1      20.502  27.335  40.555  0.00  0.00     0.163 HD
BRANCH  18  21
ATOM     21  C19 non dame1      19.422  28.007  42.765  0.00  0.00     0.056 A 
ATOM     22  C20 non dame1      20.725  28.556  42.838  0.00  0.00     0.043 A 
ATOM     23  C21 non dame1      20.663  29.621  43.719  0.00  0.00     0.142 A 
ATOM     24  O2  non dame1      19.384  29.736  44.195  0.00  0.00    -0.334 OA
ATOM     25  C22 non dame1      18.642  28.760  43.612  0.00  0.00     0.158 A 
ENDBRANCH  18  21
ENDBRANCH  13  17
ENDBRANCH   1  13
BRANCH  11  26
ATOM     26  C12 non dame1      12.799  26.275  38.734  0.00  0.00     0.067 A 
ATOM     27  C13 non dame1      12.110  25.115  39.076  0.00  0.00     0.021 A 
ATOM     28  C14 non dame1      11.433  25.073  40.299  0.00  0.00     0.020 A 
ATOM     29  C15 non dame1      11.482  26.174  41.153  0.00  0.00     0.118 A 
ATOM     30  N5  non dame1      12.159  27.288  40.833  0.00  0.00    -0.253 NA
ATOM     31  C16 non dame1      12.796  27.325  39.643  0.00  0.00     0.108 A 
BRANCH  31  32
ATOM     32  S1  non dame1      13.683  28.769  39.190  0.00  0.00    -0.114 SA
ATOM     33  C17 non dame1      14.510  28.952  40.784  0.00  0.00     0.097 C 
ENDBRANCH  31  32
ENDBRANCH  11  26
TORSDOF 6
ENDMDL
MODEL 112
REMARK VINA RESULT:      -0.0      0.000      0.000
REMARK NAME 24389158_Intermediate
REMARK  5 active torsions:
REMARK  status: ('A' for Active; 'I' for Inactive)
REMARK    1  A    between atoms: O1_2  and  C2_3 
REMARK    2  A    between atoms: C2_3  and  C3_4 
REMARK    3  A    between atoms: C4_5  and  N1_15 
REMARK    4  A    between atoms: C6_7  and  C7_8 
REMARK       I    between atoms: N1_15  and  C13_16 
REMARK    5  A    between atoms: C13_16  and  C14_17 
ROOT
ATOM      1  C3  non dame1      18.762  22.797  33.938  0.00  0.00     0.107 A 
ATOM      2  C4  non dame1      18.969  23.946  34.686  0.00  0.00     0.059 A 
ATOM      3  C5  non dame1      18.182  23.929  35.910  0.00  0.00     0.051 A 
ATOM      4  C6  non dame1      17.370  22.805  35.977  0.00  0.00     0.018 A 
ATOM      5  S1  non dame1      17.616  21.771  34.640  0.00  0.00    -0.081 SA
ENDROOT
BRANCH   2   6
ATOM      6  N1  non dame1      19.881  24.940  34.179  0.00  0.00    -0.321 N 
ATOM      7  C13 non dame1      19.397  26.060  33.558  0.00  0.00     0.256 C 
ATOM      8  O2  non dame1      18.192  26.219  33.433  0.00  0.00    -0.267 OA
ATOM      9  H10 non dame1      20.883  24.848  34.260  0.00  0.00     0.169 HD
BRANCH   7  10
ATOM     10  C14 non dame1      20.321  27.063  33.043  0.00  0.00     0.035 A 
ATOM     11  C15 non dame1      19.853  28.338  32.680  0.00  0.00     0.017 A 
ATOM     12  C16 non dame1      20.739  29.296  32.174  0.00  0.00     0.004 A 
ATOM     13  C17 non dame1      22.096  28.994  32.033  0.00  0.00     0.042 A 
ATOM     14  C18 non dame1      22.562  27.727  32.401  0.00  0.00     0.117 A 
ATOM     15  C19 non dame1      21.687  26.764  32.907  0.00  0.00     0.059 A 
ATOM     16  F1  non dame1      23.893  27.435  32.263  0.00  0.00    -0.206 F 
ENDBRANCH   7  10
ENDBRANCH   2   6
BRANCH   1  17
ATOM     17  C2  non dame1      19.432  22.524  32.735  0.00  0.00     0.302 C 
ATOM     18  O3  non dame1      20.654  22.505  32.706  0.00  0.00    -0.259 OA
BRANCH  17  19
ATOM     19  O1  non dame1      18.724  22.281  31.605  0.00  0.00    -0.322 OA
ATOM     20  C1  non dame1      18.368  23.511  30.997  0.00  0.00     0.213 C 
ENDBRANCH  17  19
ENDBRANCH   1  17
BRANCH   4  21
ATOM     21  C7  non dame1      16.486  22.556  36.987  0.00  0.00    -0.019 A 
ATOM     22  C8  non dame1      16.194  23.552  37.935  0.00  0.00     0.013 A 
ATOM     23  C9  non dame1      15.299  23.291  38.978  0.00  0.00     0.001 A 
ATOM     24  C10 non dame1      14.686  22.040  39.083  0.00  0.00     0.000 A 
ATOM     25  C11 non dame1      14.973  21.050  38.137  0.00  0.00     0.001 A 
ATOM     26  C12 non dame1      15.864  21.301  37.091  0.00  0.00     0.013 A 
ENDBRANCH   4  21
TORSDOF 5
ENDMDL
MODEL 113
REMARK VINA RESULT:      -0.0      5.381      7.504
REMARK NAME 24389158_Intermediate
REMARK  5 active torsions:
REMARK  status: ('A' for Active; 'I' for Inactive)
REMARK    1  A    between atoms: O1_2  and  C2_3 
REMARK    2  A    between atoms: C2_3  and  C3_4 
REMARK    3  A    between atoms: C4_5  and  N1_15 
REMARK    4  A    between atoms: C6_7  and  C7_8 
REMARK       I    between atoms: N1_15  and  C13_16 
REMARK    5  A    between atoms: C13_16  and  C14_17 
ROOT
ATOM      1  C3  non dame1      21.425  26.253  32.022  0.00  0.00     0.107 A 
ATOM      2  C4  non dame1      21.517  26.521  33.380  0.00  0.00     0.059 A 
ATOM      3  C5  non dame1      20.908  27.800  33.709  0.00  0.00     0.051 A 
ATOM      4  C6  non dame1      20.459  28.458  32.572  0.00  0.00     0.018 A 
ATOM      5  S1  non dame1      20.700  27.517  31.165  0.00  0.00    -0.081 SA
ENDROOT
BRANCH   2   6
ATOM      6  N1  non dame1      22.166  25.553  34.227  0.00  0.00    -0.321 N 
ATOM      7  C13 non dame1      23.460  25.749  34.627  0.00  0.00     0.256 C 
ATOM      8  O2  non dame1      24.068  26.746  34.265  0.00  0.00    -0.267 OA
ATOM      9  H10 non dame1      21.701  24.716  34.549  0.00  0.00     0.169 HD
BRANCH   7  10
ATOM     10  C14 non dame1      24.116  24.768  35.482  0.00  0.00     0.035 A 
ATOM     11  C15 non dame1      25.326  25.083  36.124  0.00  0.00     0.017 A 
ATOM     12  C16 non dame1      25.960  24.135  36.935  0.00  0.00     0.004 A 
ATOM     13  C17 non dame1      25.392  22.872  37.118  0.00  0.00     0.042 A 
ATOM     14  C18 non dame1      24.183  22.562  36.485  0.00  0.00     0.117 A 
ATOM     15  C19 non dame1      23.541  23.500  35.673  0.00  0.00     0.059 A 
ATOM     16  F1  non dame1      23.627  21.323  36.668  0.00  0.00    -0.206 F 
ENDBRANCH   7  10
ENDBRANCH   2   6
BRANCH   1  17
ATOM     17  C2  non dame1      21.884  25.064  31.434  0.00  0.00     0.302 C 
ATOM     18  O3  non dame1      21.477  23.985  31.837  0.00  0.00    -0.259 OA
BRANCH  17  19
ATOM     19  O1  non dame1      22.781  25.113  30.418  0.00  0.00    -0.322 OA
ATOM     20  C1  non dame1      24.090  25.229  30.949  0.00  0.00     0.213 C 
ENDBRANCH  17  19
ENDBRANCH   1  17
BRANCH   4  21
ATOM     21  C7  non dame1      19.895  29.701  32.575  0.00  0.00    -0.019 A 
ATOM     22  C8  non dame1      19.233  30.182  31.433  0.00  0.00     0.013 A 
ATOM     23  C9  non dame1      18.666  31.461  31.432  0.00  0.00     0.001 A 
ATOM     24  C10 non dame1      18.751  32.268  32.570  0.00  0.00     0.000 A 
ATOM     25  C11 non dame1      19.406  31.787  33.709  0.00  0.00     0.001 A 
ATOM     26  C12 non dame1      19.973  30.511  33.720  0.00  0.00     0.013 A 
ENDBRANCH   4  21
TORSDOF 5
ENDMDL
MODEL 114
REMARK VINA RESULT:       0.0      4.723      6.467
REMARK NAME 24389158_Intermediate
REMARK  5 active torsions:
REMARK  status: ('A' for Active; 'I' for Inactive)
REMARK    1  A    between atoms: O1_2  and  C2_3 
REMARK    2  A    between atoms: C2_3  and  C3_4 
REMARK    3  A    between atoms: C4_5  and  N1_15 
REMARK    4  A    between atoms: C6_7  and  C7_8 
REMARK       I    between atoms: N1_15  and  C13_16 
REMARK    5  A    between atoms: C13_16  and  C14_17 
ROOT
ATOM      1  C3  non dame1      22.092  27.020  29.995  0.00  0.00     0.107 A 
ATOM      2  C4  non dame1      22.292  26.938  31.365  0.00  0.00     0.059 A 
ATOM      3  C5  non dame1      21.076  26.532  32.053  0.00  0.00     0.051 A 
ATOM      4  C6  non dame1      20.010  26.405  31.173  0.00  0.00     0.018 A 
ATOM      5  S1  non dame1      20.491  26.692  29.558  0.00  0.00    -0.081 SA
ENDROOT
BRANCH   2   6
ATOM      6  N1  non dame1      23.599  27.248  31.886  0.00  0.00    -0.321 N 
ATOM      7  C13 non dame1      23.841  28.475  32.442  0.00  0.00     0.256 C 
ATOM      8  O2  non dame1      22.949  29.310  32.497  0.00  0.00    -0.267 OA
ATOM      9  H10 non dame1      24.363  26.589  31.861  0.00  0.00     0.169 HD
BRANCH   7  10
ATOM     10  C14 non dame1      25.164  28.789  32.968  0.00  0.00     0.035 A 
ATOM     11  C15 non dame1      25.348  29.899  33.810  0.00  0.00     0.017 A 
ATOM     12  C16 non dame1      26.621  30.205  34.303  0.00  0.00     0.004 A 
ATOM     13  C17 non dame1      27.718  29.406  33.968  0.00  0.00     0.042 A 
ATOM     14  C18 non dame1      27.531  28.296  33.136  0.00  0.00     0.117 A 
ATOM     15  C19 non dame1      26.266  27.982  32.637  0.00  0.00     0.059 A 
ATOM     16  F1  non dame1      28.608  27.514  32.810  0.00  0.00    -0.206 F 
ENDBRANCH   7  10
ENDBRANCH   2   6
BRANCH   1  17
ATOM     17  C2  non dame1      23.108  27.339  29.081  0.00  0.00     0.302 C 
ATOM     18  O3  non dame1      24.135  26.678  29.052  0.00  0.00    -0.259 OA
BRANCH  17  19
ATOM     19  O1  non dame1      22.950  28.383  28.229  0.00  0.00    -0.322 OA
ATOM     20  C1  non dame1      23.307  29.587  28.887  0.00  0.00     0.213 C 
ENDBRANCH  17  19
ENDBRANCH   1  17
BRANCH   4  21
ATOM     21  C7  non dame1      18.737  26.089  31.549  0.00  0.00    -0.019 A 
ATOM     22  C8  non dame1      18.378  26.093  32.908  0.00  0.00     0.013 A 
ATOM     23  C9  non dame1      17.076  25.756  33.294  0.00  0.00     0.001 A 
ATOM     24  C10 non dame1      16.123  25.415  32.331  0.00  0.00     0.000 A 
ATOM     25  C11 non dame1      16.479  25.415  30.977  0.00  0.00     0.001 A 
ATOM     26  C12 non dame1      17.775  25.753  30.582  0.00  0.00     0.013 A 
ENDBRANCH   4  21
TORSDOF 5
ENDMDL
MODEL 115
REMARK VINA RESULT:      -0.0      0.000      0.000
REMARK NAME 11532888_Intermediate
REMARK  3 active torsions:
REMARK  status: ('A' for Active; 'I' for Inactive)
REMARK    1  A    between atoms: O1_1  and  C1_2 
REMARK    2  A    between atoms: C11_12  and  O3_17 
REMARK    3  A    between atoms: C13_14  and  O2_16 
ROOT
ATOM      1  C1  non dame1      18.000  29.045  30.891  0.00  0.00     0.079 A 
ATOM      2  C2  non dame1      18.614  29.172  32.139  0.00  0.00     0.037 A 
ATOM      3  C3  non dame1      18.127  30.092  33.056  0.00  0.00     0.004 A 
ATOM      4  C4  non dame1      17.023  30.874  32.725  0.00  0.00     0.012 A 
ATOM      5  C5  non dame1      16.395  30.755  31.472  0.00  0.00    -0.020 A 
ATOM      6  C6  non dame1      15.277  31.544  31.174  0.00  0.00     0.025 A 
ATOM      7  C7  non dame1      14.615  31.464  29.940  0.00  0.00    -0.020 A 
ATOM      8  C8  non dame1      13.501  32.288  29.695  0.00  0.00     0.012 A 
ATOM      9  C9  non dame1      12.830  32.248  28.475  0.00  0.00     0.004 A 
ATOM     10  C10 non dame1      13.267  31.384  27.483  0.00  0.00     0.037 A 
ATOM     11  C11 non dame1      14.371  30.561  27.715  0.00  0.00     0.079 A 
ATOM     12  C12 non dame1      15.072  30.567  28.950  0.00  0.00     0.041 A 
ATOM     13  C13 non dame1      16.210  29.761  29.259  0.00  0.00     0.093 A 
ATOM     14  C14 non dame1      16.883  29.838  30.516  0.00  0.00     0.041 A 
ENDROOT
BRANCH   1  15
ATOM     15  O1  non dame1      18.479  28.170  30.066  0.00  0.00    -0.360 OA
ATOM     16  H1  non dame1      18.799  28.615  29.278  0.00  0.00     0.217 HD
ENDBRANCH   1  15
BRANCH  13  17
ATOM     17  O2  non dame1      16.626  28.938  28.350  0.00  0.00    -0.359 OA
ATOM     18  H9  non dame1      16.047  28.173  28.324  0.00  0.00     0.217 HD
ENDBRANCH  13  17
BRANCH  11  19
ATOM     19  O3  non dame1      14.750  29.774  26.760  0.00  0.00    -0.360 OA
ATOM     20  H10 non dame1      14.864  28.885  27.104  0.00  0.00     0.217 HD
ENDBRANCH  11  19
TORSDOF 3
ENDMDL
MODEL 116
REMARK VINA RESULT:      -0.0      3.669      5.407
REMARK NAME 11532888_Intermediate
REMARK  3 active torsions:
REMARK  status: ('A' for Active; 'I' for Inactive)
REMARK    1  A    between atoms: O1_1  and  C1_2 
REMARK    2  A    between atoms: C11_12  and  O3_17 
REMARK    3  A    between atoms: C13_14  and  O2_16 
ROOT
ATOM      1  C1  non dame1      12.564  31.090  29.233  0.00  0.00     0.079 A 
ATOM      2  C2  non dame1      13.245  32.288  29.457  0.00  0.00     0.037 A 
ATOM      3  C3  non dame1      14.468  32.274  30.111  0.00  0.00     0.004 A 
ATOM      4  C4  non dame1      15.011  31.061  30.528  0.00  0.00     0.012 A 
ATOM      5  C5  non dame1      14.336  29.848  30.307  0.00  0.00    -0.020 A 
ATOM      6  C6  non dame1      14.915  28.642  30.726  0.00  0.00     0.025 A 
ATOM      7  C7  non dame1      14.285  27.405  30.529  0.00  0.00    -0.020 A 
ATOM      8  C8  non dame1      14.911  26.227  30.978  0.00  0.00     0.012 A 
ATOM      9  C9  non dame1      14.306  24.983  30.815  0.00  0.00     0.004 A 
ATOM     10  C10 non dame1      13.065  24.901  30.205  0.00  0.00     0.037 A 
ATOM     11  C11 non dame1      12.433  26.063  29.755  0.00  0.00     0.079 A 
ATOM     12  C12 non dame1      13.025  27.347  29.893  0.00  0.00     0.041 A 
ATOM     13  C13 non dame1      12.440  28.577  29.465  0.00  0.00     0.093 A 
ATOM     14  C14 non dame1      13.082  29.837  29.660  0.00  0.00     0.041 A 
ENDROOT
BRANCH   1  15
ATOM     15  O1  non dame1      11.429  31.143  28.614  0.00  0.00    -0.360 OA
ATOM     16  H1  non dame1      10.731  31.346  29.241  0.00  0.00     0.217 HD
ENDBRANCH   1  15
BRANCH  13  17
ATOM     17  O2  non dame1      11.286  28.521  28.881  0.00  0.00    -0.359 OA
ATOM     18  H9  non dame1      10.688  29.147  29.296  0.00  0.00     0.217 HD
ENDBRANCH  13  17
BRANCH  11  19
ATOM     19  O3  non dame1      11.272  25.943  29.196  0.00  0.00    -0.360 OA
ATOM     20  H10 non dame1      10.688  25.447  29.775  0.00  0.00     0.217 HD
ENDBRANCH  11  19
TORSDOF 3
ENDMDL
MODEL 117
REMARK VINA RESULT:      -0.0      3.493      6.449
REMARK NAME 11532888_Intermediate
REMARK  3 active torsions:
REMARK  status: ('A' for Active; 'I' for Inactive)
REMARK    1  A    between atoms: O1_1  and  C1_2 
REMARK    2  A    between atoms: C11_12  and  O3_17 
REMARK    3  A    between atoms: C13_14  and  O2_16 
ROOT
ATOM      1  C1  non dame1      14.022  32.066  32.271  0.00  0.00     0.079 A 
ATOM      2  C2  non dame1      13.425  32.162  31.012  0.00  0.00     0.037 A 
ATOM      3  C3  non dame1      14.220  32.264  29.879  0.00  0.00     0.004 A 
ATOM      4  C4  non dame1      15.606  32.261  30.009  0.00  0.00     0.012 A 
ATOM      5  C5  non dame1      16.219  32.164  31.271  0.00  0.00    -0.020 A 
ATOM      6  C6  non dame1      17.617  32.148  31.368  0.00  0.00     0.025 A 
ATOM      7  C7  non dame1      18.278  32.051  32.601  0.00  0.00    -0.020 A 
ATOM      8  C8  non dame1      19.684  32.048  32.637  0.00  0.00     0.012 A 
ATOM      9  C9  non dame1      20.373  31.972  33.845  0.00  0.00     0.004 A 
ATOM     10  C10 non dame1      19.664  31.902  35.034  0.00  0.00     0.037 A 
ATOM     11  C11 non dame1      18.267  31.905  35.011  0.00  0.00     0.079 A 
ATOM     12  C12 non dame1      17.532  31.970  33.798  0.00  0.00     0.041 A 
ATOM     13  C13 non dame1      16.108  31.983  33.695  0.00  0.00     0.093 A 
ATOM     14  C14 non dame1      15.433  32.075  32.440  0.00  0.00     0.041 A 
ENDROOT
BRANCH   1  15
ATOM     15  O1  non dame1      13.248  31.965  33.303  0.00  0.00    -0.360 OA
ATOM     16  H1  non dame1      13.751  32.145  34.100  0.00  0.00     0.217 HD
ENDBRANCH   1  15
BRANCH  13  17
ATOM     17  O2  non dame1      15.426  31.906  34.792  0.00  0.00    -0.359 OA
ATOM     18  H9  non dame1      15.904  31.367  35.427  0.00  0.00     0.217 HD
ENDBRANCH  13  17
BRANCH  11  19
ATOM     19  O3  non dame1      17.644  31.845  36.143  0.00  0.00    -0.360 OA
ATOM     20  H10 non dame1      17.841  31.010  36.573  0.00  0.00     0.217 HD
ENDBRANCH  11  19
TORSDOF 3
ENDMDL
MODEL 118
REMARK VINA RESULT:      -0.0      0.000      0.000
REMARK NAME 24839682_Accepted
REMARK  6 active torsions:
REMARK  status: ('A' for Active; 'I' for Inactive)
REMARK    1  A    between atoms: C1_1  and  C2_2 
REMARK    2  A    between atoms: C1_1  and  C9_9 
REMARK    3  A    between atoms: C2_2  and  C3_3 
REMARK    4  A    between atoms: N1_11  and  C11_12 
REMARK    5  A    between atoms: C11_12  and  C12_13 
REMARK    6  A    between atoms: C13_16  and  C14_17 
ROOT
ATOM      1  C9  non dame1      17.155  30.900  29.007  0.00  0.00     0.179 A 
ATOM      2  C10 non dame1      16.413  29.784  28.351  0.00  0.00     0.251 A 
ATOM      3  N1  non dame1      15.122  30.232  28.128  0.00  0.00    -0.261 N 
ATOM      4  C20 non dame1      15.032  31.549  28.615  0.00  0.00     0.326 A 
ATOM      5  N4  non dame1      16.263  31.920  29.087  0.00  0.00    -0.329 N 
ATOM      6  O2  non dame1      14.072  32.288  28.646  0.00  0.00    -0.247 OA
ATOM      7  O3  non dame1      16.801  28.677  28.046  0.00  0.00    -0.271 OA
ATOM      8  H17 non dame1      16.486  32.835  29.450  0.00  0.00     0.165 HD
ENDROOT
BRANCH   3   9
ATOM      9  C11 non dame1      13.981  29.616  27.532  0.00  0.00     0.225 C 
BRANCH   9  10
ATOM     10  C12 non dame1      13.241  28.871  28.551  0.00  0.00     0.188 A 
ATOM     11  N2  non dame1      11.943  28.584  28.452  0.00  0.00    -0.125 NA
ATOM     12  N3  non dame1      11.633  27.886  29.597  0.00  0.00    -0.121 NA
ATOM     13  C13 non dame1      12.744  27.798  30.296  0.00  0.00     0.204 A 
ATOM     14  O1  non dame1      13.794  28.410  29.673  0.00  0.00    -0.271 OA
BRANCH  13  15
ATOM     15  C14 non dame1      12.948  27.198  31.505  0.00  0.00     0.036 A 
ATOM     16  C15 non dame1      13.160  25.812  31.583  0.00  0.00     0.017 A 
ATOM     17  C16 non dame1      13.356  25.195  32.824  0.00  0.00     0.001 A 
ATOM     18  C17 non dame1      13.344  25.956  33.996  0.00  0.00     0.001 A 
ATOM     19  C18 non dame1      13.140  27.339  33.918  0.00  0.00     0.020 A 
ATOM     20  C19 non dame1      12.945  27.963  32.685  0.00  0.00     0.025 A 
ATOM     21 Br1  non dame1      12.674  29.868  32.576  0.00  0.00    -0.050 Br
ENDBRANCH  13  15
ENDBRANCH   9  10
ENDBRANCH   3   9
BRANCH   1  22
ATOM     22  C1  non dame1      17.624  30.486  30.404  0.00  0.00     0.039 C 
BRANCH  22  23
ATOM     23  C2  non dame1      16.420  30.335  31.318  0.00  0.00     0.041 C 
BRANCH  23  24
ATOM     24  C3  non dame1      16.558  29.093  32.120  0.00  0.00    -0.058 A 
ATOM     25  C4  non dame1      16.596  29.154  33.524  0.00  0.00     0.007 A 
ATOM     26  C5  non dame1      16.740  27.984  34.278  0.00  0.00     0.001 A 
ATOM     27  C6  non dame1      16.841  26.744  33.640  0.00  0.00     0.000 A 
ATOM     28  C7  non dame1      16.797  26.683  32.243  0.00  0.00     0.001 A 
ATOM     29  C8  non dame1      16.652  27.844  31.482  0.00  0.00     0.007 A 
ENDBRANCH  23  24
ENDBRANCH  22  23
ENDBRANCH   1  22
TORSDOF 6
ENDMDL
MODEL 119
REMARK VINA RESULT:      -0.0      8.671     11.380
REMARK NAME 24839682_Accepted
REMARK  6 active torsions:
REMARK  status: ('A' for Active; 'I' for Inactive)
REMARK    1  A    between atoms: C1_1  and  C2_2 
REMARK    2  A    between atoms: C1_1  and  C9_9 
REMARK    3  A    between atoms: C2_2  and  C3_3 
REMARK    4  A    between atoms: N1_11  and  C11_12 
REMARK    5  A    between atoms: C11_12  and  C12_13 
REMARK    6  A    between atoms: C13_16  and  C14_17 
ROOT
ATOM      1  C9  non dame1      21.230  25.263  33.370  0.00  0.00     0.179 A 
ATOM      2  C10 non dame1      22.270  26.320  33.211  0.00  0.00     0.251 A 
ATOM      3  N1  non dame1      23.501  25.686  33.234  0.00  0.00    -0.261 N 
ATOM      4  C20 non dame1      23.272  24.308  33.405  0.00  0.00     0.326 A 
ATOM      5  N4  non dame1      21.919  24.095  33.438  0.00  0.00    -0.329 N 
ATOM      6  O2  non dame1      24.076  23.407  33.512  0.00  0.00    -0.247 OA
ATOM      7  O3  non dame1      22.135  27.518  33.084  0.00  0.00    -0.271 OA
ATOM      8  H17 non dame1      21.483  23.187  33.505  0.00  0.00     0.165 HD
ENDROOT
BRANCH   3   9
ATOM      9  C11 non dame1      24.836  26.175  33.120  0.00  0.00     0.225 C 
BRANCH   9  10
ATOM     10  C12 non dame1      25.331  26.559  34.442  0.00  0.00     0.188 A 
ATOM     11  N2  non dame1      26.626  26.604  34.755  0.00  0.00    -0.125 NA
ATOM     12  N3  non dame1      26.670  27.002  36.073  0.00  0.00    -0.121 NA
ATOM     13  C13 non dame1      25.423  27.168  36.458  0.00  0.00     0.204 A 
ATOM     14  O1  non dame1      24.534  26.898  35.457  0.00  0.00    -0.271 OA
BRANCH  13  15
ATOM     15  C14 non dame1      24.950  27.556  37.677  0.00  0.00     0.036 A 
ATOM     16  C15 non dame1      24.906  28.918  38.021  0.00  0.00     0.017 A 
ATOM     17  C16 non dame1      24.433  29.316  39.277  0.00  0.00     0.001 A 
ATOM     18  C17 non dame1      23.998  28.359  40.198  0.00  0.00     0.001 A 
ATOM     19  C18 non dame1      24.035  27.002  39.854  0.00  0.00     0.020 A 
ATOM     20  C19 non dame1      24.504  26.597  38.604  0.00  0.00     0.025 A 
ATOM     21 Br1  non dame1      24.544  24.731  38.124  0.00  0.00    -0.050 Br
ENDBRANCH  13  15
ENDBRANCH   9  10
ENDBRANCH   3   9
BRANCH   1  22
ATOM     22  C1  non dame1      20.426  25.488  34.652  0.00  0.00     0.039 C 
BRANCH  22  23
ATOM     23  C2  non dame1      21.313  25.229  35.858  0.00  0.00     0.041 C 
BRANCH  23  24
ATOM     24  C3  non dame1      21.105  26.301  36.866  0.00  0.00    -0.058 A 
ATOM     25  C4  non dame1      20.646  25.984  38.155  0.00  0.00     0.007 A 
ATOM     26  C5  non dame1      20.438  26.996  39.099  0.00  0.00     0.001 A 
ATOM     27  C6  non dame1      20.692  28.330  38.767  0.00  0.00     0.000 A 
ATOM     28  C7  non dame1      21.156  28.644  37.485  0.00  0.00     0.001 A 
ATOM     29  C8  non dame1      21.368  27.642  36.537  0.00  0.00     0.007 A 
ENDBRANCH  23  24
ENDBRANCH  22  23
ENDBRANCH   1  22
TORSDOF 6
ENDMDL
MODEL 120
REMARK VINA RESULT:       0.0     10.880     12.292
REMARK NAME 24839682_Accepted
REMARK  6 active torsions:
REMARK  status: ('A' for Active; 'I' for Inactive)
REMARK    1  A    between atoms: C1_1  and  C2_2 
REMARK    2  A    between atoms: C1_1  and  C9_9 
REMARK    3  A    between atoms: C2_2  and  C3_3 
REMARK    4  A    between atoms: N1_11  and  C11_12 
REMARK    5  A    between atoms: C11_12  and  C12_13 
REMARK    6  A    between atoms: C13_16  and  C14_17 
ROOT
ATOM      1  C9  non dame1      27.438  27.404  33.829  0.00  0.00     0.179 A 
ATOM      2  C10 non dame1      26.044  27.811  34.171  0.00  0.00     0.251 A 
ATOM      3  N1  non dame1      26.000  27.996  35.543  0.00  0.00    -0.261 N 
ATOM      4  C20 non dame1      27.280  27.719  36.056  0.00  0.00     0.326 A 
ATOM      5  N4  non dame1      28.109  27.415  35.009  0.00  0.00    -0.329 N 
ATOM      6  O2  non dame1      27.660  27.727  37.207  0.00  0.00    -0.247 OA
ATOM      7  O3  non dame1      25.088  27.966  33.442  0.00  0.00    -0.271 OA
ATOM      8  H17 non dame1      29.096  27.222  35.097  0.00  0.00     0.165 HD
ENDROOT
BRANCH   3   9
ATOM      9  C11 non dame1      24.951  28.390  36.425  0.00  0.00     0.225 C 
BRANCH   9  10
ATOM     10  C12 non dame1      24.200  27.207  36.850  0.00  0.00     0.188 A 
ATOM     11  N2  non dame1      23.496  27.153  37.981  0.00  0.00    -0.125 NA
ATOM     12  N3  non dame1      22.950  25.889  38.011  0.00  0.00    -0.121 NA
ATOM     13  C13 non dame1      23.352  25.279  36.917  0.00  0.00     0.204 A 
ATOM     14  O1  non dame1      24.149  26.076  36.146  0.00  0.00    -0.271 OA
BRANCH  13  15
ATOM     15  C14 non dame1      23.075  24.011  36.495  0.00  0.00     0.036 A 
ATOM     16  C15 non dame1      21.869  23.731  35.831  0.00  0.00     0.017 A 
ATOM     17  C16 non dame1      21.579  22.429  35.410  0.00  0.00     0.001 A 
ATOM     18  C17 non dame1      22.490  21.395  35.646  0.00  0.00     0.001 A 
ATOM     19  C18 non dame1      23.696  21.675  36.301  0.00  0.00     0.020 A 
ATOM     20  C19 non dame1      23.994  22.971  36.724  0.00  0.00     0.025 A 
ATOM     21 Br1  non dame1      25.657  23.359  37.616  0.00  0.00    -0.050 Br
ENDBRANCH  13  15
ENDBRANCH   9  10
ENDBRANCH   3   9
BRANCH   1  22
ATOM     22  C1  non dame1      27.454  26.003  33.215  0.00  0.00     0.039 C 
BRANCH  22  23
ATOM     23  C2  non dame1      27.086  24.980  34.277  0.00  0.00     0.041 C 
BRANCH  23  24
ATOM     24  C3  non dame1      26.119  24.004  33.712  0.00  0.00    -0.058 A 
ATOM     25  C4  non dame1      26.439  22.636  33.661  0.00  0.00     0.007 A 
ATOM     26  C5  non dame1      25.532  21.719  33.117  0.00  0.00     0.001 A 
ATOM     27  C6  non dame1      24.300  22.157  32.624  0.00  0.00     0.000 A 
ATOM     28  C7  non dame1      23.980  23.518  32.680  0.00  0.00     0.001 A 
ATOM     29  C8  non dame1      24.876  24.440  33.223  0.00  0.00     0.007 A 
ENDBRANCH  23  24
ENDBRANCH  22  23
ENDBRANCH   1  22
TORSDOF 6
ENDMDL
MODEL 121
REMARK VINA RESULT:      -0.0      0.000      0.000
REMARK NAME 22411586_Intermediate
REMARK  8 active torsions:
REMARK  status: ('A' for Active; 'I' for Inactive)
REMARK    1  A    between atoms: O1_1  and  N1_2 
REMARK    2  A    between atoms: N1_2  and  C1_3 
REMARK    3  A    between atoms: C6_8  and  C5_7 
REMARK    4  A    between atoms: C6_8  and  C7_9 
REMARK    5  A    between atoms: C7_9  and  C8_10 
REMARK       I    between atoms: C8_10  and  N2_11 
REMARK    6  A    between atoms: N3_14  and  C13_17 
REMARK    7  A    between atoms: C18_22  and  O2_23 
REMARK    8  A    between atoms: O2_23  and  C19_24 
ROOT
ATOM      1  C8  non dame1      16.830  26.872  42.265  0.00  0.00     0.243 C 
ATOM      2  N2  non dame1      16.188  25.664  42.262  0.00  0.00    -0.346 N 
ATOM      3  C9  non dame1      16.906  24.436  42.073  0.00  0.00     0.146 C 
ATOM      4  C10 non dame1      16.326  23.677  40.859  0.00  0.00     0.143 C 
ATOM      5  N3  non dame1      14.809  23.527  40.996  0.00  0.00    -0.376 N 
ATOM      6  C11 non dame1      14.123  24.876  41.238  0.00  0.00     0.143 C 
ATOM      7  C12 non dame1      14.769  25.572  42.446  0.00  0.00     0.146 C 
ATOM      8  O3  non dame1      18.041  26.922  42.105  0.00  0.00    -0.268 OA
ENDROOT
BRANCH   1   9
ATOM      9  C7  non dame1      16.066  28.110  42.459  0.00  0.00     0.075 C 
BRANCH   9  10
ATOM     10  C6  non dame1      15.741  28.933  41.335  0.00  0.00     0.017 C 
BRANCH  10  11
ATOM     11  C5  non dame1      14.762  28.490  40.379  0.00  0.00    -0.033 A 
ATOM     12  C4  non dame1      13.420  28.848  40.556  0.00  0.00     0.011 A 
ATOM     13  C3  non dame1      12.466  28.418  39.630  0.00  0.00     0.004 A 
ATOM     14  C2  non dame1      12.849  27.640  38.533  0.00  0.00     0.049 A 
ATOM     15  C1  non dame1      14.193  27.297  38.365  0.00  0.00     0.231 A 
ATOM     16  C21 non dame1      15.153  27.712  39.288  0.00  0.00     0.061 A 
BRANCH  15  17
ATOM     17  N1  non dame1      14.581  26.505  37.227  0.00  0.00     0.180 N 
ATOM     18  O4  non dame1      15.625  27.194  36.491  0.00  0.00    -0.032 OA
ATOM     19  H2  non dame1      13.778  26.367  36.630  0.00  0.00     0.411 HD
BRANCH  17  20
ATOM     20  O1  non dame1      15.078  25.220  37.678  0.00  0.00    -0.155 OA
ATOM     21  H1  non dame1      14.775  25.056  38.574  0.00  0.00     0.261 HD
ENDBRANCH  17  20
ENDBRANCH  15  17
ENDBRANCH  10  11
ENDBRANCH   9  10
ENDBRANCH   1   9
BRANCH   5  22
ATOM     22  C13 non dame1      14.162  22.244  40.898  0.00  0.00     0.064 A 
ATOM     23  C14 non dame1      14.016  21.435  42.037  0.00  0.00     0.032 A 
ATOM     24  C15 non dame1      13.399  20.184  41.940  0.00  0.00     0.002 A 
ATOM     25  C16 non dame1      12.920  19.729  40.708  0.00  0.00     0.003 A 
ATOM     26  C17 non dame1      13.060  20.537  39.574  0.00  0.00     0.039 A 
ATOM     27  C18 non dame1      13.672  21.790  39.662  0.00  0.00     0.095 A 
BRANCH  27  28
ATOM     28  O2  non dame1      13.802  22.580  38.556  0.00  0.00    -0.349 OA
BRANCH  28  29
ATOM     29  C19 non dame1      12.541  22.715  37.921  0.00  0.00     0.171 C 
ATOM     30  C20 non dame1      11.849  23.959  38.436  0.00  0.00     0.034 C 
ENDBRANCH  28  29
ENDBRANCH  27  28
ENDBRANCH   5  22
TORSDOF 8
ENDMDL
MODEL 122
REMARK VINA RESULT:      -0.0     10.825     13.066
REMARK NAME 22411586_Intermediate
REMARK  8 active torsions:
REMARK  status: ('A' for Active; 'I' for Inactive)
REMARK    1  A    between atoms: O1_1  and  N1_2 
REMARK    2  A    between atoms: N1_2  and  C1_3 
REMARK    3  A    between atoms: C6_8  and  C5_7 
REMARK    4  A    between atoms: C6_8  and  C7_9 
REMARK    5  A    between atoms: C7_9  and  C8_10 
REMARK       I    between atoms: C8_10  and  N2_11 
REMARK    6  A    between atoms: N3_14  and  C13_17 
REMARK    7  A    between atoms: C18_22  and  O2_23 
REMARK    8  A    between atoms: O2_23  and  C19_24 
ROOT
ATOM      1  C8  non dame1      28.372  22.078  37.810  0.00  0.00     0.243 C 
ATOM      2  N2  non dame1      27.985  22.584  36.598  0.00  0.00    -0.346 N 
ATOM      3  C9  non dame1      28.682  23.681  35.990  0.00  0.00     0.146 C 
ATOM      4  C10 non dame1      27.694  24.838  35.721  0.00  0.00     0.143 C 
ATOM      5  N3  non dame1      26.475  24.332  34.945  0.00  0.00    -0.376 N 
ATOM      6  C11 non dame1      25.816  23.134  35.637  0.00  0.00     0.143 C 
ATOM      7  C12 non dame1      26.866  22.041  35.885  0.00  0.00     0.146 C 
ATOM      8  O3  non dame1      29.328  22.561  38.397  0.00  0.00    -0.268 OA
ENDROOT
BRANCH   1   9
ATOM      9  C7  non dame1      27.636  20.955  38.405  0.00  0.00     0.075 C 
BRANCH   9  10
ATOM     10  C6  non dame1      26.692  21.196  39.453  0.00  0.00     0.017 C 
BRANCH  10  11
ATOM     11  C5  non dame1      25.452  21.865  39.163  0.00  0.00    -0.033 A 
ATOM     12  C4  non dame1      24.323  21.106  38.836  0.00  0.00     0.011 A 
ATOM     13  C3  non dame1      23.117  21.752  38.552  0.00  0.00     0.004 A 
ATOM     14  C2  non dame1      23.038  23.148  38.599  0.00  0.00     0.049 A 
ATOM     15  C1  non dame1      24.171  23.893  38.934  0.00  0.00     0.231 A 
ATOM     16  C21 non dame1      25.383  23.258  39.210  0.00  0.00     0.061 A 
BRANCH  15  17
ATOM     17  N1  non dame1      24.079  25.329  38.991  0.00  0.00     0.180 N 
ATOM     18  O4  non dame1      24.574  25.795  40.272  0.00  0.00    -0.032 OA
ATOM     19  H2  non dame1      23.114  25.603  38.879  0.00  0.00     0.411 HD
BRANCH  17  20
ATOM     20  O1  non dame1      24.875  25.908  37.927  0.00  0.00    -0.155 OA
ATOM     21  H1  non dame1      25.794  25.652  38.039  0.00  0.00     0.261 HD
ENDBRANCH  17  20
ENDBRANCH  15  17
ENDBRANCH  10  11
ENDBRANCH   9  10
ENDBRANCH   1   9
BRANCH   5  22
ATOM     22  C13 non dame1      26.050  24.951  33.715  0.00  0.00     0.064 A 
ATOM     23  C14 non dame1      26.597  24.541  32.488  0.00  0.00     0.032 A 
ATOM     24  C15 non dame1      26.192  25.150  31.296  0.00  0.00     0.002 A 
ATOM     25  C16 non dame1      25.238  26.171  31.316  0.00  0.00     0.003 A 
ATOM     26  C17 non dame1      24.688  26.576  32.538  0.00  0.00     0.039 A 
ATOM     27  C18 non dame1      25.084  25.972  33.734  0.00  0.00     0.095 A 
BRANCH  27  28
ATOM     28  O2  non dame1      24.542  26.363  34.924  0.00  0.00    -0.349 OA
BRANCH  28  29
ATOM     29  C19 non dame1      23.127  26.333  34.832  0.00  0.00     0.171 C 
ATOM     30  C20 non dame1      22.617  24.997  35.327  0.00  0.00     0.034 C 
ENDBRANCH  28  29
ENDBRANCH  27  28
ENDBRANCH   5  22
TORSDOF 8
ENDMDL
MODEL 123
REMARK VINA RESULT:      -0.0      5.244      6.786
REMARK NAME 22411586_Intermediate
REMARK  8 active torsions:
REMARK  status: ('A' for Active; 'I' for Inactive)
REMARK    1  A    between atoms: O1_1  and  N1_2 
REMARK    2  A    between atoms: N1_2  and  C1_3 
REMARK    3  A    between atoms: C6_8  and  C5_7 
REMARK    4  A    between atoms: C6_8  and  C7_9 
REMARK    5  A    between atoms: C7_9  and  C8_10 
REMARK       I    between atoms: C8_10  and  N2_11 
REMARK    6  A    between atoms: N3_14  and  C13_17 
REMARK    7  A    between atoms: C18_22  and  O2_23 
REMARK    8  A    between atoms: O2_23  and  C19_24 
ROOT
ATOM      1  C8  non dame1      19.921  29.536  36.320  0.00  0.00     0.243 C 
ATOM      2  N2  non dame1      18.737  29.045  36.801  0.00  0.00    -0.346 N 
ATOM      3  C9  non dame1      18.574  28.715  38.188  0.00  0.00     0.146 C 
ATOM      4  C10 non dame1      18.148  27.236  38.322  0.00  0.00     0.143 C 
ATOM      5  N3  non dame1      16.932  26.946  37.438  0.00  0.00    -0.376 N 
ATOM      6  C11 non dame1      17.171  27.369  35.984  0.00  0.00     0.143 C 
ATOM      7  C12 non dame1      17.609  28.840  35.941  0.00  0.00     0.146 C 
ATOM      8  O3  non dame1      20.867  29.700  37.076  0.00  0.00    -0.268 OA
ENDROOT
BRANCH   1   9
ATOM      9  C7  non dame1      20.055  29.864  34.895  0.00  0.00     0.075 C 
BRANCH   9  10
ATOM     10  C6  non dame1      20.731  28.961  34.016  0.00  0.00     0.017 C 
BRANCH  10  11
ATOM     11  C5  non dame1      20.126  27.701  33.674  0.00  0.00    -0.033 A 
ATOM     12  C4  non dame1      19.320  27.616  32.533  0.00  0.00     0.011 A 
ATOM     13  C3  non dame1      18.728  26.395  32.198  0.00  0.00     0.004 A 
ATOM     14  C2  non dame1      18.945  25.266  32.995  0.00  0.00     0.049 A 
ATOM     15  C1  non dame1      19.758  25.364  34.126  0.00  0.00     0.231 A 
ATOM     16  C21 non dame1      20.346  26.581  34.476  0.00  0.00     0.061 A 
BRANCH  15  17
ATOM     17  N1  non dame1      19.985  24.194  34.935  0.00  0.00     0.180 N 
ATOM     18  O4  non dame1      21.411  23.985  35.092  0.00  0.00    -0.032 OA
ATOM     19  H2  non dame1      19.571  23.393  34.481  0.00  0.00     0.411 HD
BRANCH  17  20
ATOM     20  O1  non dame1      19.378  24.382  36.238  0.00  0.00    -0.155 OA
ATOM     21  H1  non dame1      18.475  24.057  36.221  0.00  0.00     0.261 HD
ENDBRANCH  17  20
ENDBRANCH  15  17
ENDBRANCH  10  11
ENDBRANCH   9  10
ENDBRANCH   1   9
BRANCH   5  22
ATOM     22  C13 non dame1      15.734  26.347  37.969  0.00  0.00     0.064 A 
ATOM     23  C14 non dame1      14.724  27.151  38.523  0.00  0.00     0.032 A 
ATOM     24  C15 non dame1      13.567  26.568  39.049  0.00  0.00     0.002 A 
ATOM     25  C16 non dame1      13.405  25.180  39.025  0.00  0.00     0.003 A 
ATOM     26  C17 non dame1      14.409  24.379  38.468  0.00  0.00     0.039 A 
ATOM     27  C18 non dame1      15.567  24.952  37.938  0.00  0.00     0.095 A 
BRANCH  27  28
ATOM     28  O2  non dame1      16.542  24.170  37.389  0.00  0.00    -0.349 OA
BRANCH  28  29
ATOM     29  C19 non dame1      15.965  23.299  36.430  0.00  0.00     0.171 C 
ATOM     30  C20 non dame1      16.065  23.925  35.055  0.00  0.00     0.034 C 
ENDBRANCH  28  29
ENDBRANCH  27  28
ENDBRANCH   5  22
TORSDOF 8
ENDMDL
MODEL 124
REMARK VINA RESULT:       0.0      0.000      0.000
REMARK NAME 49668543_Intermediate
REMARK  10 active torsions:
REMARK  status: ('A' for Active; 'I' for Inactive)
REMARK    1  A    between atoms: C2_2  and  C3_3 
REMARK    2  A    between atoms: C3_3  and  C4_4 
REMARK    3  A    between atoms: C4_4  and  N1_5 
REMARK    4  A    between atoms: N1_5  and  C5_6 
REMARK    5  A    between atoms: N1_5  and  C7_8 
REMARK    6  A    between atoms: C7_8  and  C8_9 
REMARK    7  A    between atoms: C8_9  and  C9_10 
REMARK    8  A    between atoms: C9_10  and  N2_11 
REMARK       I    between atoms: N2_11  and  C10_12 
REMARK    9  A    between atoms: C10_12  and  C11_13 
REMARK   10  A    between atoms: N3_19  and  C17_20 
ROOT
ATOM      1  C11 non dame1      17.580  23.000  30.847  0.00  0.00     0.034 A 
ATOM      2  C12 non dame1      18.210  21.764  30.888  0.00  0.00     0.018 A 
ATOM      3  C13 non dame1      18.984  21.418  31.994  0.00  0.00     0.027 A 
ATOM      4  C14 non dame1      19.158  22.314  33.061  0.00  0.00     0.091 A 
ATOM      5  C15 non dame1      18.552  23.580  33.002  0.00  0.00     0.060 A 
ATOM      6  C16 non dame1      17.738  23.897  31.906  0.00  0.00     0.048 A 
ATOM      7  N3  non dame1      18.626  24.551  34.020  0.00  0.00    -0.313 N 
ATOM      8  C19 non dame1      19.600  24.806  34.962  0.00  0.00     0.260 C 
ATOM      9  C20 non dame1      20.989  24.301  34.787  0.00  0.00     0.054 A 
ATOM     10  C21 non dame1      22.049  25.230  34.819  0.00  0.00     0.018 A 
ATOM     11  C22 non dame1      23.371  24.810  34.690  0.00  0.00     0.001 A 
ATOM     12  C23 non dame1      23.657  23.459  34.523  0.00  0.00     0.002 A 
ATOM     13  C24 non dame1      22.615  22.533  34.479  0.00  0.00     0.025 A 
ATOM     14  C25 non dame1      21.278  22.946  34.601  0.00  0.00     0.080 A 
ATOM     15  S1  non dame1      20.019  21.703  34.500  0.00  0.00     0.210 S 
ATOM     16  O1  non dame1      20.652  20.187  34.253  0.00  0.00    -0.217 OA
ATOM     17  O2  non dame1      19.048  21.685  35.848  0.00  0.00    -0.217 OA
ATOM     18  O3  non dame1      19.236  25.459  35.915  0.00  0.00    -0.267 OA
ENDROOT
BRANCH   1  19
ATOM     19  C10 non dame1      16.758  23.360  29.710  0.00  0.00     0.251 C 
ATOM     20  N2  non dame1      17.336  23.562  28.484  0.00  0.00    -0.357 N 
ATOM     21  H22 non dame1      18.337  23.446  28.427  0.00  0.00     0.162 HD
ATOM     22  O4  non dame1      15.552  23.484  29.845  0.00  0.00    -0.268 OA
BRANCH  20  23
ATOM     23  C9  non dame1      16.508  23.927  27.339  0.00  0.00     0.124 C 
BRANCH  23  24
ATOM     24  C8  non dame1      16.677  25.408  27.041  0.00  0.00     0.047 C 
BRANCH  24  25
ATOM     25  C7  non dame1      17.978  25.903  27.650  0.00  0.00     0.236 C 
BRANCH  25  26
ATOM     26  N1  non dame1      17.708  27.039  28.510  0.00  0.00    -0.071 N 
ATOM     27  H10 non dame1      18.047  27.883  28.069  0.00  0.00     0.279 HD
BRANCH  26  28
ATOM     28  C4  non dame1      18.381  26.857  29.781  0.00  0.00     0.234 C 
BRANCH  28  29
ATOM     29  C3  non dame1      19.676  26.091  29.563  0.00  0.00     0.027 C 
BRANCH  29  30
ATOM     30  C2  non dame1      20.480  26.075  30.851  0.00  0.00    -0.003 C 
ATOM     31  C1  non dame1      21.271  24.789  30.938  0.00  0.00     0.005 C 
ENDBRANCH  29  30
ENDBRANCH  28  29
ENDBRANCH  26  28
BRANCH  26  32
ATOM     32  C5  non dame1      16.279  27.150  28.730  0.00  0.00     0.230 C 
ATOM     33  C6  non dame1      15.985  27.033  30.210  0.00  0.00     0.034 C 
ENDBRANCH  26  32
ENDBRANCH  25  26
ENDBRANCH  24  25
ENDBRANCH  23  24
ENDBRANCH  20  23
ENDBRANCH   1  19
BRANCH   7  34
ATOM     34  C17 non dame1      17.439  25.344  33.965  0.00  0.00     0.128 C 
ATOM     35  C18 non dame1      17.788  26.743  33.516  0.00  0.00     0.027 C 
ENDBRANCH   7  34
TORSDOF 10
ENDMDL
MODEL 125
REMARK VINA RESULT:       0.0      4.663      6.828
REMARK NAME 49668543_Intermediate
REMARK  10 active torsions:
REMARK  status: ('A' for Active; 'I' for Inactive)
REMARK    1  A    between atoms: C2_2  and  C3_3 
REMARK    2  A    between atoms: C3_3  and  C4_4 
REMARK    3  A    between atoms: C4_4  and  N1_5 
REMARK    4  A    between atoms: N1_5  and  C5_6 
REMARK    5  A    between atoms: N1_5  and  C7_8 
REMARK    6  A    between atoms: C7_8  and  C8_9 
REMARK    7  A    between atoms: C8_9  and  C9_10 
REMARK    8  A    between atoms: C9_10  and  N2_11 
REMARK       I    between atoms: N2_11  and  C10_12 
REMARK    9  A    between atoms: C10_12  and  C11_13 
REMARK   10  A    between atoms: N3_19  and  C17_20 
ROOT
ATOM      1  C11 non dame1      20.746  22.712  36.429  0.00  0.00     0.034 A 
ATOM      2  C12 non dame1      21.798  22.151  37.141  0.00  0.00     0.018 A 
ATOM      3  C13 non dame1      21.614  21.786  38.473  0.00  0.00     0.027 A 
ATOM      4  C14 non dame1      20.386  22.002  39.117  0.00  0.00     0.091 A 
ATOM      5  C15 non dame1      19.334  22.605  38.408  0.00  0.00     0.060 A 
ATOM      6  C16 non dame1      19.516  22.924  37.056  0.00  0.00     0.048 A 
ATOM      7  N3  non dame1      18.048  22.845  38.933  0.00  0.00    -0.313 N 
ATOM      8  C19 non dame1      17.625  23.088  40.223  0.00  0.00     0.260 C 
ATOM      9  C20 non dame1      18.578  23.545  41.271  0.00  0.00     0.054 A 
ATOM     10  C21 non dame1      18.294  24.741  41.960  0.00  0.00     0.018 A 
ATOM     11  C22 non dame1      19.136  25.200  42.971  0.00  0.00     0.001 A 
ATOM     12  C23 non dame1      20.275  24.476  43.308  0.00  0.00     0.002 A 
ATOM     13  C24 non dame1      20.571  23.297  42.624  0.00  0.00     0.025 A 
ATOM     14  C25 non dame1      19.733  22.828  41.599  0.00  0.00     0.080 A 
ATOM     15  S1  non dame1      20.206  21.338  40.765  0.00  0.00     0.210 S 
ATOM     16  O1  non dame1      21.633  20.718  41.348  0.00  0.00    -0.217 OA
ATOM     17  O2  non dame1      19.024  20.174  40.843  0.00  0.00    -0.217 OA
ATOM     18  O3  non dame1      16.445  22.904  40.420  0.00  0.00    -0.267 OA
ENDROOT
BRANCH   1  19
ATOM     19  C10 non dame1      20.922  23.075  35.038  0.00  0.00     0.251 C 
ATOM     20  N2  non dame1      21.756  24.109  34.701  0.00  0.00    -0.357 N 
ATOM     21  H22 non dame1      22.225  24.583  35.459  0.00  0.00     0.162 HD
ATOM     22  O4  non dame1      20.327  22.461  34.167  0.00  0.00    -0.268 OA
BRANCH  20  23
ATOM     23  C9  non dame1      21.932  24.476  33.299  0.00  0.00     0.124 C 
BRANCH  23  24
ATOM     24  C8  non dame1      21.153  25.748  33.006  0.00  0.00     0.047 C 
BRANCH  24  25
ATOM     25  C7  non dame1      20.891  26.494  34.305  0.00  0.00     0.236 C 
BRANCH  25  26
ATOM     26  N1  non dame1      19.469  26.742  34.441  0.00  0.00    -0.071 N 
ATOM     27  H10 non dame1      19.284  27.725  34.297  0.00  0.00     0.279 HD
BRANCH  26  28
ATOM     28  C4  non dame1      19.035  26.360  35.771  0.00  0.00     0.234 C 
BRANCH  28  29
ATOM     29  C3  non dame1      20.161  26.607  36.761  0.00  0.00     0.027 C 
BRANCH  29  30
ATOM     30  C2  non dame1      19.647  26.406  38.176  0.00  0.00    -0.003 C 
ATOM     31  C1  non dame1      20.759  25.868  39.047  0.00  0.00     0.005 C 
ENDBRANCH  29  30
ENDBRANCH  28  29
ENDBRANCH  26  28
BRANCH  26  32
ATOM     32  C5  non dame1      18.745  25.964  33.454  0.00  0.00     0.230 C 
ATOM     33  C6  non dame1      17.794  25.018  34.153  0.00  0.00     0.034 C 
ENDBRANCH  26  32
ENDBRANCH  25  26
ENDBRANCH  24  25
ENDBRANCH  23  24
ENDBRANCH  20  23
ENDBRANCH   1  19
BRANCH   7  34
ATOM     34  C17 non dame1      17.113  22.808  37.854  0.00  0.00     0.128 C 
ATOM     35  C18 non dame1      16.556  24.192  37.621  0.00  0.00     0.027 C 
ENDBRANCH   7  34
TORSDOF 10
ENDMDL
MODEL 126
REMARK VINA RESULT:       0.0      5.074      8.232
REMARK NAME 49668543_Intermediate
REMARK  10 active torsions:
REMARK  status: ('A' for Active; 'I' for Inactive)
REMARK    1  A    between atoms: C2_2  and  C3_3 
REMARK    2  A    between atoms: C3_3  and  C4_4 
REMARK    3  A    between atoms: C4_4  and  N1_5 
REMARK    4  A    between atoms: N1_5  and  C5_6 
REMARK    5  A    between atoms: N1_5  and  C7_8 
REMARK    6  A    between atoms: C7_8  and  C8_9 
REMARK    7  A    between atoms: C8_9  and  C9_10 
REMARK    8  A    between atoms: C9_10  and  N2_11 
REMARK       I    between atoms: N2_11  and  C10_12 
REMARK    9  A    between atoms: C10_12  and  C11_13 
REMARK   10  A    between atoms: N3_19  and  C17_20 
ROOT
ATOM      1  C11 non dame1      19.133  26.222  37.401  0.00  0.00     0.034 A 
ATOM      2  C12 non dame1      18.808  27.050  38.467  0.00  0.00     0.018 A 
ATOM      3  C13 non dame1      19.209  28.385  38.452  0.00  0.00     0.027 A 
ATOM      4  C14 non dame1      19.961  28.900  37.385  0.00  0.00     0.091 A 
ATOM      5  C15 non dame1      20.322  28.053  36.325  0.00  0.00     0.060 A 
ATOM      6  C16 non dame1      19.872  26.725  36.328  0.00  0.00     0.048 A 
ATOM      7  N3  non dame1      21.045  28.459  35.186  0.00  0.00    -0.313 N 
ATOM      8  C19 non dame1      21.982  29.455  35.013  0.00  0.00     0.260 C 
ATOM      9  C20 non dame1      22.703  30.041  36.176  0.00  0.00     0.054 A 
ATOM     10  C21 non dame1      24.112  30.018  36.173  0.00  0.00     0.018 A 
ATOM     11  C22 non dame1      24.838  30.580  37.221  0.00  0.00     0.001 A 
ATOM     12  C23 non dame1      24.171  31.169  38.289  0.00  0.00     0.002 A 
ATOM     13  C24 non dame1      22.776  31.187  38.308  0.00  0.00     0.025 A 
ATOM     14  C25 non dame1      22.034  30.618  37.260  0.00  0.00     0.080 A 
ATOM     15  S1  non dame1      20.267  30.659  37.384  0.00  0.00     0.210 S 
ATOM     16  O1  non dame1      19.753  31.383  38.788  0.00  0.00    -0.217 OA
ATOM     17  O2  non dame1      19.565  31.415  36.083  0.00  0.00    -0.217 OA
ATOM     18  O3  non dame1      22.164  29.798  33.866  0.00  0.00    -0.267 OA
ENDROOT
BRANCH   1  19
ATOM     19  C10 non dame1      18.703  24.839  37.398  0.00  0.00     0.251 C 
ATOM     20  N2  non dame1      19.228  23.957  38.306  0.00  0.00    -0.357 N 
ATOM     21  H22 non dame1      19.909  24.323  38.956  0.00  0.00     0.162 HD
ATOM     22  O4  non dame1      17.874  24.459  36.587  0.00  0.00    -0.268 OA
BRANCH  20  23
ATOM     23  C9  non dame1      18.797  22.562  38.302  0.00  0.00     0.124 C 
BRANCH  23  24
ATOM     24  C8  non dame1      19.874  21.700  37.665  0.00  0.00     0.047 C 
BRANCH  24  25
ATOM     25  C7  non dame1      21.208  22.426  37.726  0.00  0.00     0.236 C 
BRANCH  25  26
ATOM     26  N1  non dame1      21.773  22.510  36.392  0.00  0.00    -0.071 N 
ATOM     27  H10 non dame1      22.566  21.887  36.323  0.00  0.00     0.279 HD
BRANCH  26  28
ATOM     28  C4  non dame1      22.204  23.870  36.133  0.00  0.00     0.234 C 
BRANCH  28  29
ATOM     29  C3  non dame1      22.690  24.502  37.427  0.00  0.00     0.027 C 
BRANCH  29  30
ATOM     30  C2  non dame1      23.342  25.840  37.126  0.00  0.00    -0.003 C 
ATOM     31  C1  non dame1      23.096  26.793  38.274  0.00  0.00     0.005 C 
ENDBRANCH  29  30
ENDBRANCH  28  29
ENDBRANCH  26  28
BRANCH  26  32
ATOM     32  C5  non dame1      20.771  22.125  35.417  0.00  0.00     0.230 C 
ATOM     33  C6  non dame1      20.525  23.276  34.466  0.00  0.00     0.034 C 
ENDBRANCH  26  32
ENDBRANCH  25  26
ENDBRANCH  24  25
ENDBRANCH  23  24
ENDBRANCH  20  23
ENDBRANCH   1  19
BRANCH   7  34
ATOM     34  C17 non dame1      20.658  27.624  34.093  0.00  0.00     0.128 C 
ATOM     35  C18 non dame1      21.817  26.739  33.698  0.00  0.00     0.027 C 
ENDBRANCH   7  34
TORSDOF 10
ENDMDL
MODEL 127
REMARK VINA RESULT:      -0.0      0.000      0.000
REMARK NAME 4265629_Intermediate
REMARK  6 active torsions:
REMARK  status: ('A' for Active; 'I' for Inactive)
REMARK    1  A    between atoms: C2_2  and  N1_3 
REMARK    2  A    between atoms: C7_8  and  O4_23 
REMARK    3  A    between atoms: C8_9  and  S1_11 
REMARK    4  A    between atoms: S1_11  and  N2_12 
REMARK    5  A    between atoms: N2_12  and  C10_13 
REMARK    6  A    between atoms: C13_16  and  O1_19 
ROOT
ATOM      1  N1  non dame1      26.971  29.948  32.290  0.00  0.00    -0.259 N 
ATOM      2  C3  non dame1      26.608  28.994  31.344  0.00  0.00     0.170 A 
ATOM      3  C4  non dame1      26.108  27.731  31.479  0.00  0.00     0.014 A 
ATOM      4  C5  non dame1      25.818  26.958  30.342  0.00  0.00     0.018 A 
ATOM      5  C6  non dame1      25.295  25.668  30.481  0.00  0.00     0.039 A 
ATOM      6  C7  non dame1      25.060  25.137  31.752  0.00  0.00     0.091 A 
ATOM      7  C8  non dame1      25.355  25.905  32.884  0.00  0.00     0.115 A 
ATOM      8  C9  non dame1      25.879  27.192  32.756  0.00  0.00     0.043 A 
ATOM      9  N3  non dame1      26.813  29.475  30.137  0.00  0.00    -0.142 NA
ATOM     10  N4  non dame1      27.381  30.701  30.308  0.00  0.00     0.018 NA
ATOM     11  N5  non dame1      27.507  30.991  31.592  0.00  0.00    -0.003 NA
ENDROOT
BRANCH   7  12
ATOM     12  S1  non dame1      25.057  25.230  34.482  0.00  0.00     0.286 S 
ATOM     13  O2  non dame1      25.808  26.169  35.628  0.00  0.00    -0.198 OA
ATOM     14  O3  non dame1      25.660  23.683  34.551  0.00  0.00    -0.198 OA
BRANCH  12  15
ATOM     15  N2  non dame1      23.431  25.201  34.774  0.00  0.00    -0.160 NA
BRANCH  15  16
ATOM     16  C10 non dame1      22.589  26.278  34.293  0.00  0.00     0.070 A 
ATOM     17  C11 non dame1      21.687  26.059  33.238  0.00  0.00     0.035 A 
ATOM     18  C12 non dame1      20.883  27.103  32.766  0.00  0.00     0.039 A 
ATOM     19  C13 non dame1      20.969  28.371  33.343  0.00  0.00     0.068 A 
ATOM     20  C14 non dame1      21.863  28.589  34.398  0.00  0.00     0.039 A 
ATOM     21  C15 non dame1      22.668  27.554  34.876  0.00  0.00     0.035 A 
BRANCH  19  22
ATOM     22  O1  non dame1      20.189  29.395  32.887  0.00  0.00    -0.356 OA
ATOM     23  C16 non dame1      19.830  29.150  31.536  0.00  0.00     0.210 C 
ENDBRANCH  19  22
ENDBRANCH  15  16
ENDBRANCH  12  15
ENDBRANCH   7  12
BRANCH   6  24
ATOM     24  O4  non dame1      24.547  23.879  31.894  0.00  0.00    -0.354 OA
ATOM     25  C17 non dame1      23.484  23.695  30.973  0.00  0.00     0.210 C 
ENDBRANCH   6  24
BRANCH   1  26
ATOM     26  C2  non dame1      26.836  29.901  33.724  0.00  0.00     0.143 C 
ATOM     27  C1  non dame1      25.572  30.625  34.135  0.00  0.00     0.028 C 
ENDBRANCH   1  26
TORSDOF 6
ENDMDL
MODEL 128
REMARK VINA RESULT:      -0.0      4.849      6.823
REMARK NAME 4265629_Intermediate
REMARK  6 active torsions:
REMARK  status: ('A' for Active; 'I' for Inactive)
REMARK    1  A    between atoms: C2_2  and  N1_3 
REMARK    2  A    between atoms: C7_8  and  O4_23 
REMARK    3  A    between atoms: C8_9  and  S1_11 
REMARK    4  A    between atoms: S1_11  and  N2_12 
REMARK    5  A    between atoms: N2_12  and  C10_13 
REMARK    6  A    between atoms: C13_16  and  O1_19 
ROOT
ATOM      1  N1  non dame1      25.627  20.613  33.959  0.00  0.00    -0.259 N 
ATOM      2  C3  non dame1      24.952  20.258  32.795  0.00  0.00     0.170 A 
ATOM      3  C4  non dame1      23.717  20.600  32.326  0.00  0.00     0.014 A 
ATOM      4  C5  non dame1      23.261  20.097  31.096  0.00  0.00     0.018 A 
ATOM      5  C6  non dame1      21.999  20.457  30.610  0.00  0.00     0.039 A 
ATOM      6  C7  non dame1      21.181  21.316  31.348  0.00  0.00     0.091 A 
ATOM      7  C8  non dame1      21.631  21.811  32.576  0.00  0.00     0.115 A 
ATOM      8  C9  non dame1      22.888  21.457  33.070  0.00  0.00     0.043 A 
ATOM      9  N3  non dame1      25.708  19.455  32.078  0.00  0.00    -0.142 NA
ATOM     10  N4  non dame1      26.830  19.229  32.817  0.00  0.00     0.018 NA
ATOM     11  N5  non dame1      26.788  19.895  33.959  0.00  0.00    -0.003 NA
ENDROOT
BRANCH   7  12
ATOM     12  S1  non dame1      20.595  22.892  33.501  0.00  0.00     0.286 S 
ATOM     13  O2  non dame1      21.190  23.044  35.044  0.00  0.00    -0.198 OA
ATOM     14  O3  non dame1      19.056  22.269  33.559  0.00  0.00    -0.198 OA
BRANCH  12  15
ATOM     15  N2  non dame1      20.561  24.376  32.775  0.00  0.00    -0.160 NA
BRANCH  15  16
ATOM     16  C10 non dame1      21.757  24.906  32.150  0.00  0.00     0.070 A 
ATOM     17  C11 non dame1      21.841  25.009  30.752  0.00  0.00     0.035 A 
ATOM     18  C12 non dame1      23.001  25.508  30.147  0.00  0.00     0.039 A 
ATOM     19  C13 non dame1      24.084  25.910  30.933  0.00  0.00     0.068 A 
ATOM     20  C14 non dame1      23.998  25.813  32.325  0.00  0.00     0.039 A 
ATOM     21  C15 non dame1      22.846  25.317  32.937  0.00  0.00     0.035 A 
BRANCH  19  22
ATOM     22  O1  non dame1      25.219  26.397  30.350  0.00  0.00    -0.356 OA
ATOM     23  C16 non dame1      25.340  25.872  29.037  0.00  0.00     0.210 C 
ENDBRANCH  19  22
ENDBRANCH  15  16
ENDBRANCH  12  15
ENDBRANCH   7  12
BRANCH   6  24
ATOM     24  O4  non dame1      19.948  21.673  30.878  0.00  0.00    -0.354 OA
ATOM     25  C17 non dame1      20.041  21.988  29.498  0.00  0.00     0.210 C 
ENDBRANCH   6  24
BRANCH   1  26
ATOM     26  C2  non dame1      25.232  21.538  34.991  0.00  0.00     0.143 C 
ATOM     27  C1  non dame1      25.886  22.881  34.741  0.00  0.00     0.028 C 
ENDBRANCH   1  26
TORSDOF 6
ENDMDL
MODEL 129
REMARK VINA RESULT:      -0.0      3.992      6.053
REMARK NAME 4265629_Intermediate
REMARK  6 active torsions:
REMARK  status: ('A' for Active; 'I' for Inactive)
REMARK    1  A    between atoms: C2_2  and  N1_3 
REMARK    2  A    between atoms: C7_8  and  O4_23 
REMARK    3  A    between atoms: C8_9  and  S1_11 
REMARK    4  A    between atoms: S1_11  and  N2_12 
REMARK    5  A    between atoms: N2_12  and  C10_13 
REMARK    6  A    between atoms: C13_16  and  O1_19 
ROOT
ATOM      1  N1  non dame1      22.352  30.290  31.668  0.00  0.00    -0.259 N 
ATOM      2  C3  non dame1      20.964  30.349  31.580  0.00  0.00     0.170 A 
ATOM      3  C4  non dame1      20.049  29.457  31.101  0.00  0.00     0.014 A 
ATOM      4  C5  non dame1      18.678  29.764  31.126  0.00  0.00     0.018 A 
ATOM      5  C6  non dame1      17.740  28.844  30.645  0.00  0.00     0.039 A 
ATOM      6  C7  non dame1      18.160  27.615  30.132  0.00  0.00     0.091 A 
ATOM      7  C8  non dame1      19.526  27.312  30.099  0.00  0.00     0.115 A 
ATOM      8  C9  non dame1      20.469  28.224  30.575  0.00  0.00     0.043 A 
ATOM      9  N3  non dame1      20.544  31.497  32.066  0.00  0.00    -0.142 NA
ATOM     10  N4  non dame1      21.661  32.205  32.390  0.00  0.00     0.018 NA
ATOM     11  N5  non dame1      22.755  31.507  32.135  0.00  0.00    -0.003 NA
ENDROOT
BRANCH   7  12
ATOM     12  S1  non dame1      20.048  25.762  29.450  0.00  0.00     0.286 S 
ATOM     13  O2  non dame1      21.689  25.794  29.194  0.00  0.00    -0.198 OA
ATOM     14  O3  non dame1      19.268  25.472  28.012  0.00  0.00    -0.198 OA
BRANCH  12  15
ATOM     15  N2  non dame1      19.682  24.563  30.526  0.00  0.00    -0.160 NA
BRANCH  15  16
ATOM     16  C10 non dame1      19.794  24.807  31.951  0.00  0.00     0.070 A 
ATOM     17  C11 non dame1      18.641  24.904  32.747  0.00  0.00     0.035 A 
ATOM     18  C12 non dame1      18.748  25.153  34.121  0.00  0.00     0.039 A 
ATOM     19  C13 non dame1      20.005  25.305  34.710  0.00  0.00     0.068 A 
ATOM     20  C14 non dame1      21.154  25.203  33.918  0.00  0.00     0.039 A 
ATOM     21  C15 non dame1      21.057  24.955  32.548  0.00  0.00     0.035 A 
BRANCH  19  22
ATOM     22  O1  non dame1      20.117  25.549  36.049  0.00  0.00    -0.356 OA
ATOM     23  C16 non dame1      18.936  26.182  36.515  0.00  0.00     0.210 C 
ENDBRANCH  19  22
ENDBRANCH  15  16
ENDBRANCH  12  15
ENDBRANCH   7  12
BRANCH   6  24
ATOM     24  O4  non dame1      17.249  26.712  29.663  0.00  0.00    -0.354 OA
ATOM     25  C17 non dame1      16.155  26.633  30.562  0.00  0.00     0.210 C 
ENDBRANCH   6  24
BRANCH   1  26
ATOM     26  C2  non dame1      23.235  29.198  31.345  0.00  0.00     0.143 C 
ATOM     27  C1  non dame1      23.572  28.433  32.607  0.00  0.00     0.028 C 
ENDBRANCH   1  26
TORSDOF 6
ENDMDL
MODEL 130
REMARK VINA RESULT:      -0.0      0.000      0.000
REMARK NAME 24376692_Intermediate
REMARK  2 active torsions:
REMARK  status: ('A' for Active; 'I' for Inactive)
REMARK    1  A    between atoms: C2_2  and  C18_21 
REMARK       I    between atoms: N1_7  and  C7_8 
REMARK    2  A    between atoms: C7_8  and  C8_9 
ROOT
ATOM      1  C1  non dame1      19.190  28.027  32.461  0.00  0.00     0.026 C 
ATOM      2  C2  non dame1      18.433  27.953  31.158  0.00  0.00     0.015 C 
ATOM      3  C3  non dame1      17.223  27.061  31.339  0.00  0.00     0.049 C 
ATOM      4  C4  non dame1      16.350  27.150  30.101  0.00  0.00     0.035 C 
ATOM      5  C5  non dame1      17.155  26.688  28.913  0.00  0.00     0.039 C 
ATOM      6  C6  non dame1      15.160  26.242  30.286  0.00  0.00     0.039 C 
ATOM      7  N1  non dame1      15.865  28.511  29.836  0.00  0.00    -0.302 N 
ATOM      8  C7  non dame1      14.615  28.735  29.352  0.00  0.00     0.282 C 
ATOM      9  O2  non dame1      13.868  27.794  29.127  0.00  0.00    -0.265 OA
ATOM     10  C12 non dame1      16.780  29.595  30.116  0.00  0.00     0.045 A 
ATOM     11  C13 non dame1      16.508  30.920  29.741  0.00  0.00     0.030 A 
ATOM     12  C14 non dame1      17.416  31.958  29.989  0.00  0.00     0.002 A 
ATOM     13  C15 non dame1      18.627  31.691  30.610  0.00  0.00     0.001 A 
ATOM     14  C16 non dame1      18.931  30.386  30.981  0.00  0.00     0.010 A 
ATOM     15  C17 non dame1      18.018  29.339  30.748  0.00  0.00    -0.018 A 
ENDROOT
BRANCH   2  16
ATOM     16  C18 non dame1      19.310  27.375  30.107  0.00  0.00    -0.045 A 
ATOM     17  C19 non dame1      19.779  26.055  30.221  0.00  0.00     0.010 A 
ATOM     18  C20 non dame1      20.614  25.515  29.237  0.00  0.00     0.024 A 
ATOM     19  C21 non dame1      20.986  26.285  28.132  0.00  0.00     0.034 A 
ATOM     20  C22 non dame1      20.515  27.596  28.015  0.00  0.00     0.024 A 
ATOM     21 Cl1  non dame1      22.038  25.614  26.894  0.00  0.00    -0.084 Cl
ATOM     22  C23 non dame1      19.678  28.143  28.990  0.00  0.00     0.010 A 
ENDBRANCH   2  16
BRANCH   8  23
ATOM     23  C8  non dame1      14.177  30.056  29.109  0.00  0.00     0.143 A 
ATOM     24  C9  non dame1      13.543  30.785  30.019  0.00  0.00     0.045 A 
ATOM     25  C10 non dame1      13.283  32.018  29.374  0.00  0.00     0.027 A 
ATOM     26  C11 non dame1      13.813  31.924  28.098  0.00  0.00     0.143 A 
ATOM     27  O1  non dame1      14.368  30.683  27.934  0.00  0.00    -0.317 OA
ENDBRANCH   8  23
TORSDOF 2
ENDMDL
MODEL 131
REMARK VINA RESULT:      -0.0      2.839      4.997
REMARK NAME 24376692_Intermediate
REMARK  2 active torsions:
REMARK  status: ('A' for Active; 'I' for Inactive)
REMARK    1  A    between atoms: C2_2  and  C18_21 
REMARK       I    between atoms: N1_7  and  C7_8 
REMARK    2  A    between atoms: C7_8  and  C8_9 
ROOT
ATOM      1  C1  non dame1      17.938  29.567  28.421  0.00  0.00     0.026 C 
ATOM      2  C2  non dame1      16.953  29.781  29.542  0.00  0.00     0.015 C 
ATOM      3  C3  non dame1      16.090  30.983  29.222  0.00  0.00     0.049 C 
ATOM      4  C4  non dame1      14.968  31.076  30.238  0.00  0.00     0.035 C 
ATOM      5  C5  non dame1      15.575  31.232  31.610  0.00  0.00     0.039 C 
ATOM      6  C6  non dame1      14.130  32.288  29.919  0.00  0.00     0.039 C 
ATOM      7  N1  non dame1      14.098  29.893  30.243  0.00  0.00    -0.302 N 
ATOM      8  C7  non dame1      12.757  30.001  30.435  0.00  0.00     0.282 C 
ATOM      9  O2  non dame1      12.251  31.100  30.609  0.00  0.00    -0.265 OA
ATOM     10  C12 non dame1      14.737  28.613  30.034  0.00  0.00     0.045 A 
ATOM     11  C13 non dame1      14.052  27.398  30.195  0.00  0.00     0.030 A 
ATOM     12  C14 non dame1      14.690  26.163  30.020  0.00  0.00     0.002 A 
ATOM     13  C15 non dame1      16.037  26.114  29.693  0.00  0.00     0.001 A 
ATOM     14  C16 non dame1      16.746  27.300  29.541  0.00  0.00     0.010 A 
ATOM     15  C17 non dame1      16.109  28.546  29.701  0.00  0.00    -0.018 A 
ENDROOT
BRANCH   2  16
ATOM     16  C18 non dame1      17.689  30.034  30.808  0.00  0.00    -0.045 A 
ATOM     17  C19 non dame1      18.502  31.173  30.940  0.00  0.00     0.010 A 
ATOM     18  C20 non dame1      19.204  31.405  32.127  0.00  0.00     0.024 A 
ATOM     19  C21 non dame1      19.100  30.507  33.193  0.00  0.00     0.034 A 
ATOM     20  C22 non dame1      18.286  29.377  33.064  0.00  0.00     0.024 A 
ATOM     21 Cl1  non dame1      19.981  30.790  34.686  0.00  0.00    -0.084 Cl
ATOM     22  C23 non dame1      17.578  29.138  31.884  0.00  0.00     0.010 A 
ENDBRANCH   2  16
BRANCH   8  23
ATOM     23  C8  non dame1      11.947  28.843  30.434  0.00  0.00     0.143 A 
ATOM     24  C9  non dame1      11.367  28.371  29.338  0.00  0.00     0.045 A 
ATOM     25  C10 non dame1      10.656  27.226  29.773  0.00  0.00     0.027 A 
ATOM     26  C11 non dame1      10.889  27.100  31.132  0.00  0.00     0.143 A 
ATOM     27  O1  non dame1      11.697  28.126  31.544  0.00  0.00    -0.317 OA
ENDBRANCH   8  23
TORSDOF 2
ENDMDL
MODEL 132
REMARK VINA RESULT:      -0.0      4.441      7.407
REMARK NAME 24376692_Intermediate
REMARK  2 active torsions:
REMARK  status: ('A' for Active; 'I' for Inactive)
REMARK    1  A    between atoms: C2_2  and  C18_21 
REMARK       I    between atoms: N1_7  and  C7_8 
REMARK    2  A    between atoms: C7_8  and  C8_9 
ROOT
ATOM      1  C1  non dame1      11.310  26.064  30.928  0.00  0.00     0.026 C 
ATOM      2  C2  non dame1      12.668  26.596  31.311  0.00  0.00     0.015 C 
ATOM      3  C3  non dame1      12.787  26.611  32.820  0.00  0.00     0.049 C 
ATOM      4  C4  non dame1      14.216  26.945  33.203  0.00  0.00     0.035 C 
ATOM      5  C5  non dame1      14.557  28.305  32.648  0.00  0.00     0.039 C 
ATOM      6  C6  non dame1      14.315  26.978  34.708  0.00  0.00     0.039 C 
ATOM      7  N1  non dame1      15.191  25.973  32.691  0.00  0.00    -0.302 N 
ATOM      8  C7  non dame1      16.277  25.607  33.421  0.00  0.00     0.282 C 
ATOM      9  O2  non dame1      16.459  26.089  34.529  0.00  0.00    -0.265 OA
ATOM     10  C12 non dame1      14.937  25.428  31.376  0.00  0.00     0.045 A 
ATOM     11  C13 non dame1      15.877  24.633  30.700  0.00  0.00     0.030 A 
ATOM     12  C14 non dame1      15.633  24.136  29.414  0.00  0.00     0.002 A 
ATOM     13  C15 non dame1      14.444  24.434  28.765  0.00  0.00     0.001 A 
ATOM     14  C16 non dame1      13.499  25.230  29.402  0.00  0.00     0.010 A 
ATOM     15  C17 non dame1      13.730  25.722  30.701  0.00  0.00    -0.018 A 
ENDROOT
BRANCH   2  16
ATOM     16  C18 non dame1      12.821  27.981  30.797  0.00  0.00    -0.045 A 
ATOM     17  C19 non dame1      11.988  29.010  31.269  0.00  0.00     0.010 A 
ATOM     18  C20 non dame1      12.125  30.311  30.776  0.00  0.00     0.024 A 
ATOM     19  C21 non dame1      13.094  30.599  29.811  0.00  0.00     0.034 A 
ATOM     20  C22 non dame1      13.927  29.577  29.345  0.00  0.00     0.024 A 
ATOM     21 Cl1  non dame1      13.269  32.231  29.185  0.00  0.00    -0.084 Cl
ATOM     22  C23 non dame1      13.801  28.275  29.833  0.00  0.00     0.010 A 
ENDBRANCH   2  16
BRANCH   8  23
ATOM     23  C8  non dame1      17.195  24.668  32.900  0.00  0.00     0.143 A 
ATOM     24  C9  non dame1      17.088  23.362  33.109  0.00  0.00     0.045 A 
ATOM     25  C10 non dame1      18.196  22.798  32.431  0.00  0.00     0.027 A 
ATOM     26  C11 non dame1      18.884  23.846  31.843  0.00  0.00     0.143 A 
ATOM     27  O1  non dame1      18.253  25.023  32.149  0.00  0.00    -0.317 OA
ENDBRANCH   8  23
TORSDOF 2
ENDMDL
MODEL 133
REMARK VINA RESULT:      -0.0      0.000      0.000
REMARK NAME 124895953_Intermediate
REMARK  5 active torsions:
REMARK  status: ('A' for Active; 'I' for Inactive)
REMARK    1  A    between atoms: C2_2  and  N1_3 
REMARK    2  A    between atoms: N1_3  and  C4_5 
REMARK       I    between atoms: N1_3  and  C21_23 
REMARK    3  A    between atoms: C4_5  and  C12_13 
REMARK    4  A    between atoms: C5_6  and  C6_7 
REMARK    5  A    between atoms: C21_23  and  O2_25 
ROOT
ATOM      1  C4  non dame1      17.529  30.474  32.202  0.00  0.00     0.160 C 
ATOM      2  C5  non dame1      18.219  31.613  32.725  0.00  0.00     0.050 C 
ENDROOT
BRANCH   1   3
ATOM      3  N1  non dame1      18.237  29.292  31.917  0.00  0.00     0.046 N 
ATOM      4  C3  non dame1      17.411  28.418  31.105  0.00  0.00     0.294 C 
ATOM      5  C21 non dame1      18.569  28.642  33.120  0.00  0.00     0.357 C 
ATOM      6  O1  non dame1      19.423  27.768  33.127  0.00  0.00    -0.627 OA
BRANCH   3   7
ATOM      7  C2  non dame1      19.452  29.619  31.193  0.00  0.00     0.253 C 
ATOM      8  C1  non dame1      19.308  29.199  29.747  0.00  0.00     0.036 C 
ENDBRANCH   3   7
BRANCH   5   9
ATOM      9  O2  non dame1      17.941  28.986  34.271  0.00  0.00    -0.755 OA
ATOM     10  H21 non dame1      17.873  29.942  34.326  0.00  0.00     0.169 HD
ENDBRANCH   5   9
ENDBRANCH   1   3
BRANCH   1  11
ATOM     11  C12 non dame1      16.109  30.537  31.968  0.00  0.00     0.013 A 
ATOM     12  C13 non dame1      15.227  30.022  32.909  0.00  0.00     0.034 A 
ATOM     13  C14 non dame1      13.869  30.104  32.655  0.00  0.00     0.118 A 
ATOM     14  N2  non dame1      13.375  30.663  31.526  0.00  0.00    -0.260 NA
ATOM     15  C15 non dame1      14.222  31.150  30.596  0.00  0.00     0.067 A 
ATOM     16  C16 non dame1      13.750  31.720  29.409  0.00  0.00     0.032 A 
ATOM     17  C20 non dame1      15.619  31.116  30.792  0.00  0.00     0.005 A 
ATOM     18  C17 non dame1      14.618  32.288  28.468  0.00  0.00     0.002 A 
ATOM     19  C18 non dame1      15.991  32.251  28.675  0.00  0.00     0.001 A 
ATOM     20  C19 non dame1      16.491  31.658  29.832  0.00  0.00     0.014 A 
ENDBRANCH   1  11
BRANCH   2  21
ATOM     21  C6  non dame1      19.646  31.550  32.959  0.00  0.00    -0.034 A 
ATOM     22  C7  non dame1      20.547  31.946  31.957  0.00  0.00     0.011 A 
ATOM     23  C8  non dame1      21.927  31.875  32.179  0.00  0.00     0.001 A 
ATOM     24  C9  non dame1      22.419  31.412  33.403  0.00  0.00     0.000 A 
ATOM     25  C10 non dame1      21.521  31.022  34.403  0.00  0.00     0.001 A 
ATOM     26  C11 non dame1      20.144  31.092  34.191  0.00  0.00     0.011 A 
ENDBRANCH   2  21
TORSDOF 5
ENDMDL
MODEL 134
REMARK VINA RESULT:      -0.0      3.989      6.447
REMARK NAME 124895953_Intermediate
REMARK  5 active torsions:
REMARK  status: ('A' for Active; 'I' for Inactive)
REMARK    1  A    between atoms: C2_2  and  N1_3 
REMARK    2  A    between atoms: N1_3  and  C4_5 
REMARK       I    between atoms: N1_3  and  C21_23 
REMARK    3  A    between atoms: C4_5  and  C12_13 
REMARK    4  A    between atoms: C5_6  and  C6_7 
REMARK    5  A    between atoms: C21_23  and  O2_25 
ROOT
ATOM      1  C4  non dame1      15.903  27.184  30.275  0.00  0.00     0.160 C 
ATOM      2  C5  non dame1      16.133  28.283  31.161  0.00  0.00     0.050 C 
ENDROOT
BRANCH   1   3
ATOM      3  N1  non dame1      15.543  27.422  28.935  0.00  0.00     0.046 N 
ATOM      4  C3  non dame1      15.051  26.194  28.341  0.00  0.00     0.294 C 
ATOM      5  C21 non dame1      16.669  27.872  28.221  0.00  0.00     0.357 C 
ATOM      6  O1  non dame1      16.528  28.411  27.134  0.00  0.00    -0.627 OA
BRANCH   3   7
ATOM      7  C2  non dame1      14.504  28.434  28.886  0.00  0.00     0.253 C 
ATOM      8  C1  non dame1      13.185  27.787  28.524  0.00  0.00     0.036 C 
ENDBRANCH   3   7
BRANCH   5   9
ATOM      9  O2  non dame1      17.911  27.707  28.739  0.00  0.00    -0.755 OA
ATOM     10  H21 non dame1      18.080  28.392  29.390  0.00  0.00     0.169 HD
ENDBRANCH   5   9
ENDBRANCH   1   3
BRANCH   1  11
ATOM     11  C12 non dame1      16.039  25.832  30.754  0.00  0.00     0.013 A 
ATOM     12  C13 non dame1      17.218  25.133  30.531  0.00  0.00     0.034 A 
ATOM     13  C14 non dame1      17.317  23.838  31.011  0.00  0.00     0.118 A 
ATOM     14  N2  non dame1      16.309  23.234  31.681  0.00  0.00    -0.260 NA
ATOM     15  C15 non dame1      15.153  23.895  31.887  0.00  0.00     0.067 A 
ATOM     16  C16 non dame1      14.082  23.299  32.561  0.00  0.00     0.032 A 
ATOM     17  C20 non dame1      14.983  25.224  31.442  0.00  0.00     0.005 A 
ATOM     18  C17 non dame1      12.902  24.000  32.839  0.00  0.00     0.002 A 
ATOM     19  C18 non dame1      12.749  25.309  32.398  0.00  0.00     0.001 A 
ATOM     20  C19 non dame1      13.785  25.917  31.693  0.00  0.00     0.014 A 
ENDBRANCH   1  11
BRANCH   2  21
ATOM     21  C6  non dame1      15.995  29.641  30.679  0.00  0.00    -0.034 A 
ATOM     22  C7  non dame1      17.092  30.307  30.108  0.00  0.00     0.011 A 
ATOM     23  C8  non dame1      16.963  31.623  29.653  0.00  0.00     0.001 A 
ATOM     24  C9  non dame1      15.736  32.287  29.761  0.00  0.00     0.000 A 
ATOM     25  C10 non dame1      14.642  31.623  30.326  0.00  0.00     0.001 A 
ATOM     26  C11 non dame1      14.762  30.309  30.780  0.00  0.00     0.011 A 
ENDBRANCH   2  21
TORSDOF 5
ENDMDL
MODEL 135
REMARK VINA RESULT:      -0.0      4.744      5.818
REMARK NAME 124895953_Intermediate
REMARK  5 active torsions:
REMARK  status: ('A' for Active; 'I' for Inactive)
REMARK    1  A    between atoms: C2_2  and  N1_3 
REMARK    2  A    between atoms: N1_3  and  C4_5 
REMARK       I    between atoms: N1_3  and  C21_23 
REMARK    3  A    between atoms: C4_5  and  C12_13 
REMARK    4  A    between atoms: C5_6  and  C6_7 
REMARK    5  A    between atoms: C21_23  and  O2_25 
ROOT
ATOM      1  C4  non dame1      14.032  27.508  30.680  0.00  0.00     0.160 C 
ATOM      2  C5  non dame1      15.150  27.186  31.512  0.00  0.00     0.050 C 
ENDROOT
BRANCH   1   3
ATOM      3  N1  non dame1      13.616  26.609  29.680  0.00  0.00     0.046 N 
ATOM      4  C3  non dame1      12.706  27.282  28.773  0.00  0.00     0.294 C 
ATOM      5  C21 non dame1      12.962  25.515  30.276  0.00  0.00     0.357 C 
ATOM      6  O1  non dame1      12.781  24.489  29.638  0.00  0.00    -0.627 OA
BRANCH   3   7
ATOM      7  C2  non dame1      14.774  26.137  28.943  0.00  0.00     0.253 C 
ATOM      8  C1  non dame1      14.780  26.754  27.562  0.00  0.00     0.036 C 
ENDBRANCH   3   7
BRANCH   5   9
ATOM      9  O2  non dame1      12.533  25.600  31.560  0.00  0.00    -0.755 OA
ATOM     10  H21 non dame1      12.856  24.845  32.056  0.00  0.00     0.169 HD
ENDBRANCH   5   9
ENDBRANCH   1   3
BRANCH   1  11
ATOM     11  C12 non dame1      13.332  28.753  30.865  0.00  0.00     0.013 A 
ATOM     12  C13 non dame1      12.160  28.786  31.611  0.00  0.00     0.034 A 
ATOM     13  C14 non dame1      11.516  30.001  31.773  0.00  0.00     0.118 A 
ATOM     14  N2  non dame1      11.984  31.148  31.231  0.00  0.00    -0.260 NA
ATOM     15  C15 non dame1      13.110  31.126  30.489  0.00  0.00     0.067 A 
ATOM     16  C16 non dame1      13.615  32.289  29.899  0.00  0.00     0.032 A 
ATOM     17  C20 non dame1      13.830  29.929  30.292  0.00  0.00     0.005 A 
ATOM     18  C17 non dame1      14.820  32.288  29.183  0.00  0.00     0.002 A 
ATOM     19  C18 non dame1      15.521  31.103  28.999  0.00  0.00     0.001 A 
ATOM     20  C19 non dame1      15.022  29.924  29.546  0.00  0.00     0.014 A 
ENDBRANCH   1  11
BRANCH   2  21
ATOM     21  C6  non dame1      15.855  25.935  31.326  0.00  0.00    -0.034 A 
ATOM     22  C7  non dame1      15.450  24.783  32.019  0.00  0.00     0.011 A 
ATOM     23  C8  non dame1      16.138  23.577  31.848  0.00  0.00     0.001 A 
ATOM     24  C9  non dame1      17.233  23.509  30.981  0.00  0.00     0.000 A 
ATOM     25  C10 non dame1      17.632  24.656  30.286  0.00  0.00     0.001 A 
ATOM     26  C11 non dame1      16.951  25.861  30.449  0.00  0.00     0.011 A 
ENDBRANCH   2  21
TORSDOF 5
ENDMDL
MODEL 136
REMARK VINA RESULT:      -0.0      0.000      0.000
REMARK NAME 56318392_Intermediate
REMARK  7 active torsions:
REMARK  status: ('A' for Active; 'I' for Inactive)
REMARK    1  A    between atoms: C3_3  and  N1_4 
REMARK    2  A    between atoms: N1_4  and  C4_5 
REMARK       I    between atoms: N1_4  and  C13_18 
REMARK    3  A    between atoms: C4_5  and  C5_6 
REMARK    4  A    between atoms: C6_9  and  C7_10 
REMARK    5  A    between atoms: C13_18  and  C14_19 
REMARK    6  A    between atoms: C18_23  and  S1_25 
REMARK    7  A    between atoms: S1_25  and  N4_26 
ROOT
ATOM      1  N1  non dame1      22.527  23.668  33.627  0.00  0.00    -0.336 N 
ATOM      2  C13 non dame1      22.968  24.961  33.713  0.00  0.00     0.254 C 
ATOM      3  O5  non dame1      24.162  25.194  33.832  0.00  0.00    -0.267 OA
ENDROOT
BRANCH   1   4
ATOM      4  C3  non dame1      23.455  22.598  33.673  0.00  0.00     0.088 A 
ATOM      5  C2  non dame1      23.778  22.058  32.581  0.00  0.00     0.027 A 
ATOM      6  C1  non dame1      22.992  21.421  33.705  0.00  0.00     0.027 A 
ENDBRANCH   1   4
BRANCH   1   7
ATOM      7  C4  non dame1      21.124  23.397  33.487  0.00  0.00     0.215 C 
BRANCH   7   8
ATOM      8  C5  non dame1      20.456  23.635  34.758  0.00  0.00     0.187 A 
ATOM      9  N2  non dame1      20.765  23.210  35.970  0.00  0.00    -0.125 NA
ATOM     10  N3  non dame1      19.817  23.711  36.834  0.00  0.00    -0.121 NA
ATOM     11  C6  non dame1      18.979  24.414  36.104  0.00  0.00     0.204 A 
ATOM     12  O1  non dame1      19.319  24.412  34.781  0.00  0.00    -0.271 OA
BRANCH  11  13
ATOM     13  C7  non dame1      17.871  25.105  36.503  0.00  0.00     0.041 A 
ATOM     14  C8  non dame1      17.972  26.458  36.867  0.00  0.00     0.017 A 
ATOM     15  C9  non dame1      16.837  27.161  37.287  0.00  0.00     0.001 A 
ATOM     16  C10 non dame1      15.595  26.524  37.343  0.00  0.00     0.002 A 
ATOM     17  C11 non dame1      15.494  25.179  36.974  0.00  0.00     0.025 A 
ATOM     18  C12 non dame1      16.620  24.468  36.551  0.00  0.00     0.048 A 
ATOM     19 Cl1  non dame1      16.491  22.782  36.080  0.00  0.00    -0.083 Cl
ENDBRANCH  11  13
ENDBRANCH   7   8
ENDBRANCH   1   7
BRANCH   2  20
ATOM     20  C14 non dame1      22.014  26.061  33.665  0.00  0.00     0.033 A 
ATOM     21  C15 non dame1      21.734  26.808  34.821  0.00  0.00     0.017 A 
ATOM     22  C16 non dame1      20.809  27.858  34.777  0.00  0.00     0.003 A 
ATOM     23  C17 non dame1      20.159  28.172  33.580  0.00  0.00     0.025 A 
ATOM     24  C18 non dame1      20.444  27.432  32.427  0.00  0.00     0.075 A 
ATOM     25  C19 non dame1      21.366  26.385  32.460  0.00  0.00     0.041 A 
BRANCH  24  26
ATOM     26  S1  non dame1      19.622  27.835  30.924  0.00  0.00     0.243 S 
ATOM     27  O3  non dame1      20.745  28.252  29.774  0.00  0.00    -0.206 OA
ATOM     28  O4  non dame1      18.591  29.113  31.180  0.00  0.00    -0.206 OA
BRANCH  26  29
ATOM     29  N4  non dame1      18.758  26.528  30.400  0.00  0.00    -0.202 NA
ATOM     30  C20 non dame1      18.099  26.873  29.089  0.00  0.00     0.134 C 
ATOM     31  C21 non dame1      17.167  25.728  28.673  0.00  0.00     0.183 C 
ATOM     32  O2  non dame1      16.198  25.463  29.695  0.00  0.00    -0.389 OA
ATOM     33  C22 non dame1      16.828  25.055  30.915  0.00  0.00     0.183 C 
ATOM     34  C23 non dame1      17.744  26.159  31.455  0.00  0.00     0.134 C 
ENDBRANCH  26  29
ENDBRANCH  24  26
ENDBRANCH   2  20
TORSDOF 7
ENDMDL
MODEL 137
REMARK VINA RESULT:      -0.0      3.625      6.457
REMARK NAME 56318392_Intermediate
REMARK  7 active torsions:
REMARK  status: ('A' for Active; 'I' for Inactive)
REMARK    1  A    between atoms: C3_3  and  N1_4 
REMARK    2  A    between atoms: N1_4  and  C4_5 
REMARK       I    between atoms: N1_4  and  C13_18 
REMARK    3  A    between atoms: C4_5  and  C5_6 
REMARK    4  A    between atoms: C6_9  and  C7_10 
REMARK    5  A    between atoms: C13_18  and  C14_19 
REMARK    6  A    between atoms: C18_23  and  S1_25 
REMARK    7  A    between atoms: S1_25  and  N4_26 
ROOT
ATOM      1  N1  non dame1      21.045  20.893  35.258  0.00  0.00    -0.336 N 
ATOM      2  C13 non dame1      21.384  20.778  33.936  0.00  0.00     0.254 C 
ATOM      3  O5  non dame1      21.096  19.764  33.317  0.00  0.00    -0.267 OA
ENDROOT
BRANCH   1   4
ATOM      4  C3  non dame1      20.359  19.836  35.908  0.00  0.00     0.088 A 
ATOM      5  C2  non dame1      19.116  19.961  36.069  0.00  0.00     0.027 A 
ATOM      6  C1  non dame1      20.169  19.942  37.154  0.00  0.00     0.027 A 
ENDBRANCH   1   4
BRANCH   1   7
ATOM      7  C4  non dame1      21.384  22.084  35.984  0.00  0.00     0.215 C 
BRANCH   7   8
ATOM      8  C5  non dame1      22.814  22.094  36.258  0.00  0.00     0.187 A 
ATOM      9  N2  non dame1      23.583  21.153  36.774  0.00  0.00    -0.125 NA
ATOM     10  N3  non dame1      24.864  21.656  36.828  0.00  0.00    -0.121 NA
ATOM     11  C6  non dame1      24.808  22.877  36.344  0.00  0.00     0.204 A 
ATOM     12  O1  non dame1      23.543  23.224  35.961  0.00  0.00    -0.271 OA
BRANCH  11  13
ATOM     13  C7  non dame1      25.819  23.782  36.190  0.00  0.00     0.041 A 
ATOM     14  C8  non dame1      26.547  23.835  34.990  0.00  0.00     0.017 A 
ATOM     15  C9  non dame1      27.590  24.756  34.840  0.00  0.00     0.001 A 
ATOM     16  C10 non dame1      27.912  25.631  35.880  0.00  0.00     0.002 A 
ATOM     17  C11 non dame1      27.183  25.582  37.072  0.00  0.00     0.025 A 
ATOM     18  C12 non dame1      26.138  24.669  37.232  0.00  0.00     0.048 A 
ATOM     19 Cl1  non dame1      25.217  24.613  38.726  0.00  0.00    -0.083 Cl
ENDBRANCH  11  13
ENDBRANCH   7   8
ENDBRANCH   1   7
BRANCH   2  20
ATOM     20  C14 non dame1      22.089  21.864  33.267  0.00  0.00     0.033 A 
ATOM     21  C15 non dame1      23.440  21.718  32.912  0.00  0.00     0.017 A 
ATOM     22  C16 non dame1      24.119  22.766  32.279  0.00  0.00     0.003 A 
ATOM     23  C17 non dame1      23.457  23.964  31.994  0.00  0.00     0.025 A 
ATOM     24  C18 non dame1      22.109  24.105  32.343  0.00  0.00     0.075 A 
ATOM     25  C19 non dame1      21.422  23.066  32.972  0.00  0.00     0.041 A 
BRANCH  24  26
ATOM     26  S1  non dame1      21.282  25.615  31.980  0.00  0.00     0.243 S 
ATOM     27  O3  non dame1      19.996  25.314  30.973  0.00  0.00    -0.206 OA
ATOM     28  O4  non dame1      22.338  26.660  31.235  0.00  0.00    -0.206 OA
BRANCH  26  29
ATOM     29  N4  non dame1      20.735  26.295  33.383  0.00  0.00    -0.202 NA
ATOM     30  C20 non dame1      19.989  27.562  33.052  0.00  0.00     0.134 C 
ATOM     31  C21 non dame1      19.615  28.285  34.352  0.00  0.00     0.183 C 
ATOM     32  O2  non dame1      20.781  28.551  35.140  0.00  0.00    -0.389 OA
ATOM     33  C22 non dame1      21.439  27.338  35.522  0.00  0.00     0.183 C 
ATOM     34  C23 non dame1      21.912  26.559  34.289  0.00  0.00     0.134 C 
ENDBRANCH  26  29
ENDBRANCH  24  26
ENDBRANCH   2  20
TORSDOF 7
ENDMDL
MODEL 138
REMARK VINA RESULT:      -0.0      4.712      5.776
REMARK NAME 56318392_Intermediate
REMARK  7 active torsions:
REMARK  status: ('A' for Active; 'I' for Inactive)
REMARK    1  A    between atoms: C3_3  and  N1_4 
REMARK    2  A    between atoms: N1_4  and  C4_5 
REMARK       I    between atoms: N1_4  and  C13_18 
REMARK    3  A    between atoms: C4_5  and  C5_6 
REMARK    4  A    between atoms: C6_9  and  C7_10 
REMARK    5  A    between atoms: C13_18  and  C14_19 
REMARK    6  A    between atoms: C18_23  and  S1_25 
REMARK    7  A    between atoms: S1_25  and  N4_26 
ROOT
ATOM      1  N1  non dame1      24.634  23.145  37.965  0.00  0.00    -0.336 N 
ATOM      2  C13 non dame1      25.677  24.023  37.836  0.00  0.00     0.254 C 
ATOM      3  O5  non dame1      26.828  23.611  37.851  0.00  0.00    -0.267 OA
ENDROOT
BRANCH   1   4
ATOM      4  C3  non dame1      24.888  21.758  38.112  0.00  0.00     0.088 A 
ATOM      5  C2  non dame1      24.747  21.028  37.095  0.00  0.00     0.027 A 
ATOM      6  C1  non dame1      23.901  21.004  38.349  0.00  0.00     0.027 A 
ENDBRANCH   1   4
BRANCH   1   7
ATOM      7  C4  non dame1      23.283  23.630  37.948  0.00  0.00     0.215 C 
BRANCH   7   8
ATOM      8  C5  non dame1      22.992  24.295  39.210  0.00  0.00     0.187 A 
ATOM      9  N2  non dame1      23.189  23.884  40.449  0.00  0.00    -0.125 NA
ATOM     10  N3  non dame1      22.742  24.881  41.287  0.00  0.00    -0.121 NA
ATOM     11  C6  non dame1      22.295  25.847  40.516  0.00  0.00     0.204 A 
ATOM     12  O1  non dame1      22.421  25.548  39.188  0.00  0.00    -0.271 OA
BRANCH  11  13
ATOM     13  C7  non dame1      21.752  27.047  40.877  0.00  0.00     0.041 A 
ATOM     14  C8  non dame1      22.568  28.180  41.023  0.00  0.00     0.017 A 
ATOM     15  C9  non dame1      22.010  29.405  41.405  0.00  0.00     0.001 A 
ATOM     16  C10 non dame1      20.638  29.511  41.640  0.00  0.00     0.002 A 
ATOM     17  C11 non dame1      19.824  28.384  41.488  0.00  0.00     0.025 A 
ATOM     18  C12 non dame1      20.370  27.156  41.105  0.00  0.00     0.048 A 
ATOM     19 Cl1  non dame1      19.347  25.743  40.906  0.00  0.00    -0.083 Cl
ENDBRANCH  11  13
ENDBRANCH   7   8
ENDBRANCH   1   7
BRANCH   2  20
ATOM     20  C14 non dame1      25.416  25.448  37.685  0.00  0.00     0.033 A 
ATOM     21  C15 non dame1      25.697  26.336  38.736  0.00  0.00     0.017 A 
ATOM     22  C16 non dame1      25.436  27.703  38.593  0.00  0.00     0.003 A 
ATOM     23  C17 non dame1      24.895  28.196  37.402  0.00  0.00     0.025 A 
ATOM     24  C18 non dame1      24.622  27.311  36.353  0.00  0.00     0.075 A 
ATOM     25  C19 non dame1      24.881  25.946  36.484  0.00  0.00     0.041 A 
BRANCH  24  26
ATOM     26  S1  non dame1      23.942  27.938  34.856  0.00  0.00     0.243 S 
ATOM     27  O3  non dame1      24.950  27.563  33.590  0.00  0.00    -0.206 OA
ATOM     28  O4  non dame1      23.784  29.589  34.968  0.00  0.00    -0.206 OA
BRANCH  26  29
ATOM     29  N4  non dame1      22.458  27.261  34.597  0.00  0.00    -0.202 NA
ATOM     30  C20 non dame1      21.893  27.801  33.308  0.00  0.00     0.134 C 
ATOM     31  C21 non dame1      20.453  27.304  33.138  0.00  0.00     0.183 C 
ATOM     32  O2  non dame1      19.648  27.679  34.262  0.00  0.00    -0.389 OA
ATOM     33  C22 non dame1      20.142  27.095  35.473  0.00  0.00     0.183 C 
ATOM     34  C23 non dame1      21.566  27.575  35.773  0.00  0.00     0.134 C 
ENDBRANCH  26  29
ENDBRANCH  24  26
ENDBRANCH   2  20
TORSDOF 7
ENDMDL
MODEL 139
REMARK VINA RESULT:      -0.0      0.000      0.000
REMARK NAME 26731412_Intermediate
REMARK  8 active torsions:
REMARK  status: ('A' for Active; 'I' for Inactive)
REMARK    1  A    between atoms: O1_1  and  N1_2 
REMARK    2  A    between atoms: N1_2  and  C1_3 
REMARK    3  A    between atoms: C3_5  and  O3_26 
REMARK    4  A    between atoms: C4_6  and  S1_11 
REMARK    5  A    between atoms: C6_8  and  O2_9 
REMARK    6  A    between atoms: S1_11  and  C8_12 
REMARK    7  A    between atoms: C8_12  and  C9_13 
REMARK    8  A    between atoms: N4_17  and  C11_18 
ROOT
ATOM      1  C1  non dame1      21.430  23.495  33.530  0.00  0.00     0.266 A 
ATOM      2  C2  non dame1      22.104  24.298  34.451  0.00  0.00     0.090 A 
ATOM      3  C3  non dame1      22.563  23.741  35.650  0.00  0.00     0.087 A 
ATOM      4  C4  non dame1      22.345  22.389  35.927  0.00  0.00     0.037 A 
ATOM      5  C5  non dame1      21.662  21.597  34.996  0.00  0.00     0.061 A 
ATOM      6  C6  non dame1      21.198  22.144  33.799  0.00  0.00     0.116 A 
ENDROOT
BRANCH   4   7
ATOM      7  S1  non dame1      22.920  21.682  37.427  0.00  0.00    -0.119 SA
BRANCH   7   8
ATOM      8  C8  non dame1      21.618  20.410  37.511  0.00  0.00     0.160 C 
BRANCH   8   9
ATOM      9  C9  non dame1      20.777  20.650  38.688  0.00  0.00     0.145 A 
ATOM     10  N2  non dame1      21.025  20.182  39.882  0.00  0.00    -0.133 NA
ATOM     11  N3  non dame1      20.001  20.642  40.696  0.00  0.00    -0.121 NA
ATOM     12  C10 non dame1      19.190  21.360  39.949  0.00  0.00     0.207 A 
ATOM     13  N4  non dame1      19.666  21.368  38.681  0.00  0.00    -0.274 N 
ATOM     14  S2  non dame1      17.679  22.256  40.318  0.00  0.00    -0.009 SA
BRANCH  13  15
ATOM     15  C11 non dame1      19.094  22.021  37.529  0.00  0.00     0.043 A 
ATOM     16  C12 non dame1      18.323  21.288  36.610  0.00  0.00     0.030 A 
ATOM     17  C13 non dame1      17.781  21.921  35.487  0.00  0.00     0.009 A 
ATOM     18  C14 non dame1      17.999  23.284  35.270  0.00  0.00    -0.062 A 
ATOM     19  C15 non dame1      17.430  23.956  34.085  0.00  0.00     0.048 C 
ATOM     20  C16 non dame1      18.762  24.013  36.189  0.00  0.00     0.009 A 
ATOM     21  C17 non dame1      19.308  23.393  37.314  0.00  0.00     0.030 A 
ENDBRANCH  13  15
ENDBRANCH   8   9
ENDBRANCH   7   8
ENDBRANCH   4   7
BRANCH   3  22
ATOM     22  O3  non dame1      23.227  24.524  36.553  0.00  0.00    -0.355 OA
ATOM     23  C18 non dame1      22.377  25.579  36.976  0.00  0.00     0.210 C 
ENDBRANCH   3  22
BRANCH   6  24
ATOM     24  O2  non dame1      20.526  21.373  32.894  0.00  0.00    -0.353 OA
ATOM     25  C7  non dame1      20.335  20.074  33.428  0.00  0.00     0.210 C 
ENDBRANCH   6  24
BRANCH   1  26
ATOM     26  N1  non dame1      20.971  24.073  32.293  0.00  0.00     0.183 N 
ATOM     27  O4  non dame1      21.259  25.494  32.287  0.00  0.00    -0.032 OA
ATOM     28  H2  non dame1      19.976  23.926  32.209  0.00  0.00     0.411 HD
BRANCH  26  29
ATOM     29  O1  non dame1      21.652  23.439  31.182  0.00  0.00    -0.155 OA
ATOM     30  H1  non dame1      22.475  23.051  31.489  0.00  0.00     0.261 HD
ENDBRANCH  26  29
ENDBRANCH   1  26
TORSDOF 8
ENDMDL
MODEL 140
REMARK VINA RESULT:      -0.0      5.045      7.085
REMARK NAME 26731412_Intermediate
REMARK  8 active torsions:
REMARK  status: ('A' for Active; 'I' for Inactive)
REMARK    1  A    between atoms: O1_1  and  N1_2 
REMARK    2  A    between atoms: N1_2  and  C1_3 
REMARK    3  A    between atoms: C3_5  and  O3_26 
REMARK    4  A    between atoms: C4_6  and  S1_11 
REMARK    5  A    between atoms: C6_8  and  O2_9 
REMARK    6  A    between atoms: S1_11  and  C8_12 
REMARK    7  A    between atoms: C8_12  and  C9_13 
REMARK    8  A    between atoms: N4_17  and  C11_18 
ROOT
ATOM      1  C1  non dame1      24.888  24.824  37.055  0.00  0.00     0.266 A 
ATOM      2  C2  non dame1      24.273  24.068  38.054  0.00  0.00     0.090 A 
ATOM      3  C3  non dame1      22.901  24.216  38.289  0.00  0.00     0.087 A 
ATOM      4  C4  non dame1      22.151  25.117  37.530  0.00  0.00     0.037 A 
ATOM      5  C5  non dame1      22.783  25.873  36.535  0.00  0.00     0.061 A 
ATOM      6  C6  non dame1      24.150  25.735  36.295  0.00  0.00     0.116 A 
ENDROOT
BRANCH   4   7
ATOM      7  S1  non dame1      20.429  25.307  37.816  0.00  0.00    -0.119 SA
BRANCH   7   8
ATOM      8  C8  non dame1      20.369  27.046  37.273  0.00  0.00     0.160 C 
BRANCH   8   9
ATOM      9  C9  non dame1      20.008  27.899  38.409  0.00  0.00     0.145 A 
ATOM     10  N2  non dame1      18.782  28.181  38.762  0.00  0.00    -0.133 NA
ATOM     11  N3  non dame1      18.880  29.002  39.875  0.00  0.00    -0.121 NA
ATOM     12  C10 non dame1      20.160  29.173  40.131  0.00  0.00     0.207 A 
ATOM     13  N4  non dame1      20.879  28.486  39.212  0.00  0.00    -0.274 N 
ATOM     14  S2  non dame1      21.027  30.094  41.405  0.00  0.00    -0.009 SA
BRANCH  13  15
ATOM     15  C11 non dame1      22.315  28.397  39.104  0.00  0.00     0.043 A 
ATOM     16  C12 non dame1      23.007  29.199  38.180  0.00  0.00     0.030 A 
ATOM     17  C13 non dame1      24.396  29.101  38.067  0.00  0.00     0.009 A 
ATOM     18  C14 non dame1      25.109  28.208  38.873  0.00  0.00    -0.062 A 
ATOM     19  C15 non dame1      26.577  28.100  38.757  0.00  0.00     0.048 C 
ATOM     20  C16 non dame1      24.420  27.415  39.796  0.00  0.00     0.009 A 
ATOM     21  C17 non dame1      23.032  27.504  39.918  0.00  0.00     0.030 A 
ENDBRANCH  13  15
ENDBRANCH   8   9
ENDBRANCH   7   8
ENDBRANCH   4   7
BRANCH   3  22
ATOM     22  O3  non dame1      22.295  23.475  39.264  0.00  0.00    -0.355 OA
ATOM     23  C18 non dame1      22.891  23.769  40.518  0.00  0.00     0.210 C 
ENDBRANCH   3  22
BRANCH   6  24
ATOM     24  O2  non dame1      24.768  26.477  35.329  0.00  0.00    -0.353 OA
ATOM     25  C7  non dame1      23.837  27.381  34.760  0.00  0.00     0.210 C 
ENDBRANCH   6  24
BRANCH   1  26
ATOM     26  N1  non dame1      26.297  24.657  36.811  0.00  0.00     0.183 N 
ATOM     27  O4  non dame1      26.848  23.724  37.775  0.00  0.00    -0.032 OA
ATOM     28  H2  non dame1      26.757  25.552  36.902  0.00  0.00     0.411 HD
BRANCH  26  29
ATOM     29  O1  non dame1      26.499  24.141  35.471  0.00  0.00    -0.155 OA
ATOM     30  H1  non dame1      27.073  24.735  34.982  0.00  0.00     0.261 HD
ENDBRANCH  26  29
ENDBRANCH   1  26
TORSDOF 8
ENDMDL
MODEL 141
REMARK VINA RESULT:      -0.0      3.633      5.325
REMARK NAME 26731412_Intermediate
REMARK  8 active torsions:
REMARK  status: ('A' for Active; 'I' for Inactive)
REMARK    1  A    between atoms: O1_1  and  N1_2 
REMARK    2  A    between atoms: N1_2  and  C1_3 
REMARK    3  A    between atoms: C3_5  and  O3_26 
REMARK    4  A    between atoms: C4_6  and  S1_11 
REMARK    5  A    between atoms: C6_8  and  O2_9 
REMARK    6  A    between atoms: S1_11  and  C8_12 
REMARK    7  A    between atoms: C8_12  and  C9_13 
REMARK    8  A    between atoms: N4_17  and  C11_18 
ROOT
ATOM      1  C1  non dame1      19.088  26.375  36.336  0.00  0.00     0.266 A 
ATOM      2  C2  non dame1      20.172  25.824  35.651  0.00  0.00     0.090 A 
ATOM      3  C3  non dame1      20.769  24.652  36.128  0.00  0.00     0.087 A 
ATOM      4  C4  non dame1      20.285  24.037  37.286  0.00  0.00     0.037 A 
ATOM      5  C5  non dame1      19.201  24.605  37.966  0.00  0.00     0.061 A 
ATOM      6  C6  non dame1      18.601  25.775  37.500  0.00  0.00     0.116 A 
ENDROOT
BRANCH   4   7
ATOM      7  S1  non dame1      21.026  22.564  37.889  0.00  0.00    -0.119 SA
BRANCH   7   8
ATOM      8  C8  non dame1      20.613  22.883  39.635  0.00  0.00     0.160 C 
BRANCH   8   9
ATOM      9  C9  non dame1      21.848  23.066  40.403  0.00  0.00     0.145 A 
ATOM     10  N2  non dame1      22.529  22.095  40.953  0.00  0.00    -0.133 NA
ATOM     11  N3  non dame1      23.618  22.689  41.571  0.00  0.00    -0.121 NA
ATOM     12  C10 non dame1      23.535  23.987  41.363  0.00  0.00     0.207 A 
ATOM     13  N4  non dame1      22.422  24.236  40.632  0.00  0.00    -0.274 N 
ATOM     14  S2  non dame1      24.581  25.360  41.853  0.00  0.00    -0.009 SA
BRANCH  13  15
ATOM     15  C11 non dame1      21.932  25.515  40.181  0.00  0.00     0.043 A 
ATOM     16  C12 non dame1      20.903  26.167  40.882  0.00  0.00     0.030 A 
ATOM     17  C13 non dame1      20.421  27.400  40.435  0.00  0.00     0.009 A 
ATOM     18  C14 non dame1      20.959  27.996  39.291  0.00  0.00    -0.062 A 
ATOM     19  C15 non dame1      20.452  29.298  38.813  0.00  0.00     0.048 C 
ATOM     20  C16 non dame1      21.987  27.349  38.597  0.00  0.00     0.009 A 
ATOM     21  C17 non dame1      22.477  26.117  39.034  0.00  0.00     0.030 A 
ENDBRANCH  13  15
ENDBRANCH   8   9
ENDBRANCH   7   8
ENDBRANCH   4   7
BRANCH   3  22
ATOM     22  O3  non dame1      21.828  24.107  35.458  0.00  0.00    -0.355 OA
ATOM     23  C18 non dame1      22.897  25.040  35.428  0.00  0.00     0.210 C 
ENDBRANCH   3  22
BRANCH   6  24
ATOM     24  O2  non dame1      17.548  26.332  38.167  0.00  0.00    -0.353 OA
ATOM     25  C7  non dame1      17.296  25.597  39.352  0.00  0.00     0.210 C 
ENDBRANCH   6  24
BRANCH   1  26
ATOM     26  N1  non dame1      18.471  27.575  35.832  0.00  0.00     0.183 N 
ATOM     27  O4  non dame1      19.204  28.046  34.673  0.00  0.00    -0.032 OA
ATOM     28  H2  non dame1      18.485  28.282  36.554  0.00  0.00     0.411 HD
BRANCH  26  29
ATOM     29  O1  non dame1      17.101  27.293  35.455  0.00  0.00    -0.155 OA
ATOM     30  H1  non dame1      16.614  26.984  36.222  0.00  0.00     0.261 HD
ENDBRANCH  26  29
ENDBRANCH   1  26
TORSDOF 8
ENDMDL
MODEL 142
REMARK VINA RESULT:      -0.0      0.000      0.000
REMARK NAME 24268692_Intermediate
REMARK  6 active torsions:
REMARK  status: ('A' for Active; 'I' for Inactive)
REMARK    1  A    between atoms: N2_5  and  C4_6 
REMARK    2  A    between atoms: C4_6  and  C5_7 
REMARK    3  A    between atoms: C11_13  and  S1_18 
REMARK    4  A    between atoms: S1_18  and  C14_19 
REMARK    5  A    between atoms: C14_19  and  C15_20 
REMARK       I    between atoms: C15_20  and  N5_21 
REMARK    6  A    between atoms: N5_21  and  C16_22 
ROOT
ATOM      1  C1  non dame1      26.096  32.119  31.215  0.00  0.00     0.180 C 
ATOM      2  N1  non dame1      25.047  31.142  31.357  0.00  0.00    -0.267 N 
ATOM      3  C2  non dame1      25.034  29.939  31.937  0.00  0.00     0.150 A 
ATOM      4  C3  non dame1      26.137  29.266  32.609  0.00  0.00     0.280 A 
ATOM      5  N2  non dame1      25.714  28.050  33.079  0.00  0.00    -0.287 N 
ATOM      6  C11 non dame1      24.445  27.535  32.947  0.00  0.00     0.172 A 
ATOM      7  N3  non dame1      23.417  28.081  32.366  0.00  0.00    -0.221 NA
ATOM      8  C12 non dame1      23.755  29.344  31.836  0.00  0.00     0.112 A 
ATOM      9  C13 non dame1      22.948  30.215  31.146  0.00  0.00     0.173 A 
ATOM     10  N4  non dame1      23.786  31.288  30.886  0.00  0.00    -0.182 NA
ATOM     11  O2  non dame1      27.257  29.712  32.734  0.00  0.00    -0.265 OA
ENDROOT
BRANCH   6  12
ATOM     12  S1  non dame1      24.288  25.966  33.676  0.00  0.00    -0.082 SA
BRANCH  12  13
ATOM     13  C14 non dame1      22.922  25.426  32.597  0.00  0.00     0.185 C 
BRANCH  13  14
ATOM     14  C15 non dame1      23.448  24.492  31.560  0.00  0.00     0.232 C 
ATOM     15  N5  non dame1      24.797  24.335  31.399  0.00  0.00    -0.324 N 
ATOM     16  H14 non dame1      25.426  24.859  31.992  0.00  0.00     0.169 HD
ATOM     17  O1  non dame1      22.672  23.866  30.852  0.00  0.00    -0.272 OA
BRANCH  15  18
ATOM     18  C16 non dame1      25.288  23.463  30.427  0.00  0.00     0.073 A 
ATOM     19  C17 non dame1      25.610  22.137  30.759  0.00  0.00     0.034 A 
ATOM     20  C18 non dame1      26.114  21.268  29.786  0.00  0.00     0.021 A 
ATOM     21  C19 non dame1      26.296  21.712  28.474  0.00  0.00     0.014 A 
ATOM     22  C20 non dame1      25.970  23.031  28.141  0.00  0.00     0.063 A 
ATOM     23 Br1  non dame1      26.994  20.522  27.128  0.00  0.00    -0.051 Br
ATOM     24  C21 non dame1      25.465  23.905  29.105  0.00  0.00     0.144 A 
ATOM     25  F1  non dame1      25.138  25.194  28.775  0.00  0.00    -0.204 F 
ENDBRANCH  15  18
ENDBRANCH  13  14
ENDBRANCH  12  13
ENDBRANCH   6  12
BRANCH   5  26
ATOM     26  C4  non dame1      26.720  27.296  33.753  0.00  0.00     0.173 C 
BRANCH  26  27
ATOM     27  C5  non dame1      27.382  26.382  32.788  0.00  0.00    -0.040 A 
ATOM     28  C6  non dame1      27.881  25.140  33.215  0.00  0.00     0.009 A 
ATOM     29  C7  non dame1      28.515  24.283  32.308  0.00  0.00     0.001 A 
ATOM     30  C8  non dame1      28.654  24.656  30.969  0.00  0.00     0.000 A 
ATOM     31  C9  non dame1      28.153  25.891  30.542  0.00  0.00     0.001 A 
ATOM     32  C10 non dame1      27.517  26.752  31.439  0.00  0.00     0.009 A 
ENDBRANCH  26  27
ENDBRANCH   5  26
TORSDOF 6
ENDMDL
MODEL 143
REMARK VINA RESULT:       0.0     11.101     13.617
REMARK NAME 24268692_Intermediate
REMARK  6 active torsions:
REMARK  status: ('A' for Active; 'I' for Inactive)
REMARK    1  A    between atoms: N2_5  and  C4_6 
REMARK    2  A    between atoms: C4_6  and  C5_7 
REMARK    3  A    between atoms: C11_13  and  S1_18 
REMARK    4  A    between atoms: S1_18  and  C14_19 
REMARK    5  A    between atoms: C14_19  and  C15_20 
REMARK       I    between atoms: C15_20  and  N5_21 
REMARK    6  A    between atoms: N5_21  and  C16_22 
ROOT
ATOM      1  C1  non dame1      19.703  23.508  38.764  0.00  0.00     0.180 C 
ATOM      2  N1  non dame1      18.729  24.467  39.220  0.00  0.00    -0.267 N 
ATOM      3  C2  non dame1      17.403  24.521  39.067  0.00  0.00     0.150 A 
ATOM      4  C3  non dame1      16.554  23.574  38.359  0.00  0.00     0.280 A 
ATOM      5  N2  non dame1      15.248  23.981  38.441  0.00  0.00    -0.287 N 
ATOM      6  C11 non dame1      14.796  25.104  39.092  0.00  0.00     0.172 A 
ATOM      7  N3  non dame1      15.495  25.985  39.745  0.00  0.00    -0.221 NA
ATOM      8  C12 non dame1      16.867  25.660  39.712  0.00  0.00     0.112 A 
ATOM      9  C13 non dame1      17.914  26.349  40.272  0.00  0.00     0.173 A 
ATOM     10  N4  non dame1      19.017  25.575  39.944  0.00  0.00    -0.182 NA
ATOM     11  O2  non dame1      16.941  22.579  37.785  0.00  0.00    -0.265 OA
ENDROOT
BRANCH   6  12
ATOM     12  S1  non dame1      13.072  25.286  38.980  0.00  0.00    -0.082 SA
BRANCH  12  13
ATOM     13  C14 non dame1      13.090  27.099  39.170  0.00  0.00     0.185 C 
BRANCH  13  14
ATOM     14  C15 non dame1      12.881  27.740  37.840  0.00  0.00     0.232 C 
ATOM     15  N5  non dame1      12.931  26.985  36.699  0.00  0.00    -0.324 N 
ATOM     16  H14 non dame1      13.111  25.994  36.775  0.00  0.00     0.169 HD
ATOM     17  O1  non dame1      12.665  28.941  37.768  0.00  0.00    -0.272 OA
BRANCH  15  18
ATOM     18  C16 non dame1      12.738  27.586  35.456  0.00  0.00     0.073 A 
ATOM     19  C17 non dame1      11.461  27.613  34.870  0.00  0.00     0.034 A 
ATOM     20  C18 non dame1      11.272  28.204  33.617  0.00  0.00     0.021 A 
ATOM     21  C19 non dame1      12.350  28.778  32.940  0.00  0.00     0.014 A 
ATOM     22  C20 non dame1      13.621  28.757  33.526  0.00  0.00     0.063 A 
ATOM     23 Br1  non dame1      12.099  29.591  31.212  0.00  0.00    -0.051 Br
ATOM     24  C21 non dame1      13.820  28.171  34.776  0.00  0.00     0.144 A 
ATOM     25  F1  non dame1      15.063  28.158  35.352  0.00  0.00    -0.204 F 
ENDBRANCH  15  18
ENDBRANCH  13  14
ENDBRANCH  12  13
ENDBRANCH   6  12
BRANCH   5  26
ATOM     26  C4  non dame1      14.322  23.126  37.772  0.00  0.00     0.173 C 
BRANCH  26  27
ATOM     27  C5  non dame1      14.100  23.622  36.390  0.00  0.00    -0.040 A 
ATOM     28  C6  non dame1      12.850  23.459  35.769  0.00  0.00     0.009 A 
ATOM     29  C7  non dame1      12.645  23.916  34.463  0.00  0.00     0.001 A 
ATOM     30  C8  non dame1      13.680  24.545  33.767  0.00  0.00     0.000 A 
ATOM     31  C9  non dame1      14.924  24.713  34.387  0.00  0.00     0.001 A 
ATOM     32  C10 non dame1      15.138  24.261  35.691  0.00  0.00     0.009 A 
ENDBRANCH  26  27
ENDBRANCH   5  26
TORSDOF 6
ENDMDL
MODEL 144
REMARK VINA RESULT:       0.0      6.661      9.907
REMARK NAME 24268692_Intermediate
REMARK  6 active torsions:
REMARK  status: ('A' for Active; 'I' for Inactive)
REMARK    1  A    between atoms: N2_5  and  C4_6 
REMARK    2  A    between atoms: C4_6  and  C5_7 
REMARK    3  A    between atoms: C11_13  and  S1_18 
REMARK    4  A    between atoms: S1_18  and  C14_19 
REMARK    5  A    between atoms: C14_19  and  C15_20 
REMARK       I    between atoms: C15_20  and  N5_21 
REMARK    6  A    between atoms: N5_21  and  C16_22 
ROOT
ATOM      1  C1  non dame1      18.104  20.578  33.442  0.00  0.00     0.180 C 
ATOM      2  N1  non dame1      19.003  21.195  34.384  0.00  0.00    -0.267 N 
ATOM      3  C2  non dame1      18.903  22.324  35.091  0.00  0.00     0.150 A 
ATOM      4  C3  non dame1      17.802  23.277  35.088  0.00  0.00     0.280 A 
ATOM      5  N2  non dame1      18.079  24.299  35.957  0.00  0.00    -0.287 N 
ATOM      6  C11 non dame1      19.215  24.417  36.723  0.00  0.00     0.172 A 
ATOM      7  N3  non dame1      20.230  23.604  36.778  0.00  0.00    -0.221 NA
ATOM      8  C12 non dame1      20.045  22.513  35.903  0.00  0.00     0.112 A 
ATOM      9  C13 non dame1      20.895  21.460  35.673  0.00  0.00     0.173 A 
ATOM     10  N4  non dame1      20.207  20.692  34.746  0.00  0.00    -0.182 NA
ATOM     11  O2  non dame1      16.795  23.181  34.419  0.00  0.00    -0.265 OA
ENDROOT
BRANCH   6  12
ATOM     12  S1  non dame1      19.206  25.849  37.706  0.00  0.00    -0.082 SA
BRANCH  12  13
ATOM     13  C14 non dame1      21.021  25.992  37.795  0.00  0.00     0.185 C 
BRANCH  13  14
ATOM     14  C15 non dame1      21.479  27.077  36.882  0.00  0.00     0.232 C 
ATOM     15  N5  non dame1      20.611  27.623  35.976  0.00  0.00    -0.324 N 
ATOM     16  H14 non dame1      19.661  27.281  35.939  0.00  0.00     0.169 HD
ATOM     17  O1  non dame1      22.633  27.479  36.941  0.00  0.00    -0.272 OA
BRANCH  15  18
ATOM     18  C16 non dame1      21.041  28.637  35.120  0.00  0.00     0.073 A 
ATOM     19  C17 non dame1      20.865  29.986  35.471  0.00  0.00     0.034 A 
ATOM     20  C18 non dame1      21.286  31.001  34.605  0.00  0.00     0.021 A 
ATOM     21  C19 non dame1      21.890  30.680  33.387  0.00  0.00     0.014 A 
ATOM     22  C20 non dame1      22.071  29.337  33.039  0.00  0.00     0.063 A 
ATOM     23 Br1  non dame1      22.468  32.072  32.187  0.00  0.00    -0.051 Br
ATOM     24  C21 non dame1      21.656  28.317  33.898  0.00  0.00     0.144 A 
ATOM     25  F1  non dame1      21.842  27.002  33.560  0.00  0.00    -0.204 F 
ENDBRANCH  15  18
ENDBRANCH  13  14
ENDBRANCH  12  13
ENDBRANCH   6  12
BRANCH   5  26
ATOM     26  C4  non dame1      17.066  25.301  36.030  0.00  0.00     0.173 C 
BRANCH  26  27
ATOM     27  C5  non dame1      17.379  26.392  35.073  0.00  0.00    -0.040 A 
ATOM     28  C6  non dame1      16.997  27.715  35.353  0.00  0.00     0.009 A 
ATOM     29  C7  non dame1      17.282  28.740  34.445  0.00  0.00     0.001 A 
ATOM     30  C8  non dame1      17.952  28.458  33.252  0.00  0.00     0.000 A 
ATOM     31  C9  non dame1      18.338  27.141  32.975  0.00  0.00     0.001 A 
ATOM     32  C10 non dame1      18.059  26.111  33.875  0.00  0.00     0.009 A 
ENDBRANCH  26  27
ENDBRANCH   5  26
TORSDOF 6
ENDMDL
MODEL 145
REMARK VINA RESULT:      -0.0      0.000      0.000
REMARK NAME 3712638_Intermediate
REMARK  4 active torsions:
REMARK  status: ('A' for Active; 'I' for Inactive)
REMARK    1  A    between atoms: N5_16  and  C12_17 
REMARK    2  A    between atoms: C12_17  and  C13_18 
REMARK    3  A    between atoms: C13_18  and  C14_19 
REMARK    4  A    between atoms: C14_19  and  N6_20 
ROOT
ATOM      1  C1  non dame1      15.293  32.288  30.098  0.00  0.00     0.005 A 
ATOM      2  C2  non dame1      15.408  32.102  28.669  0.00  0.00     0.018 A 
ATOM      3  C3  non dame1      16.625  31.928  28.131  0.00  0.00     0.102 A 
ATOM      4  N1  non dame1      17.783  31.922  28.905  0.00  0.00    -0.273 N 
ATOM      5  C4  non dame1      17.728  32.095  30.274  0.00  0.00     0.139 A 
ATOM      6  C5  non dame1      16.381  32.288  30.877  0.00  0.00     0.051 A 
ATOM      7  N2  non dame1      18.762  32.101  31.053  0.00  0.00    -0.212 NA
ATOM      8  C6  non dame1      20.018  31.927  30.521  0.00  0.00     0.149 A 
ATOM      9  C7  non dame1      20.198  31.747  29.192  0.00  0.00     0.080 A 
ATOM     10  C8  non dame1      21.522  31.554  28.625  0.00  0.00     0.046 A 
ATOM     11  C9  non dame1      22.640  31.606  29.365  0.00  0.00     0.077 A 
ATOM     12  C10 non dame1      23.886  31.413  28.744  0.00  0.00     0.024 C 
ATOM     13  N3  non dame1      25.131  31.220  28.122  0.00  0.00    -0.096 N 
ATOM     14  C11 non dame1      22.457  31.875  30.833  0.00  0.00     0.143 A 
ATOM     15  N4  non dame1      23.548  32.051  31.616  0.00  0.00    -0.282 NA
ATOM     16  N5  non dame1      21.159  31.939  31.364  0.00  0.00    -0.315 N 
ATOM     17  C18 non dame1      19.009  31.735  28.293  0.00  0.00     0.267 A 
ATOM     18  O1  non dame1      19.156  31.567  27.102  0.00  0.00    -0.267 OA
ATOM     19  H6  non dame1      23.619  33.022  31.882  0.00  0.00     0.188 HD
ENDROOT
BRANCH  16  20
ATOM     20  C12 non dame1      21.117  32.013  32.803  0.00  0.00     0.134 C 
BRANCH  20  21
ATOM     21  C13 non dame1      20.995  30.613  33.380  0.00  0.00     0.040 C 
BRANCH  21  22
ATOM     22  C14 non dame1      19.836  30.568  34.362  0.00  0.00     0.131 C 
BRANCH  22  23
ATOM     23  N6  non dame1      18.684  29.959  33.723  0.00  0.00    -0.350 N 
ATOM     24  C15 non dame1      18.838  29.001  32.867  0.00  0.00     0.111 A 
ATOM     25  C16 non dame1      17.497  28.764  32.576  0.00  0.00     0.135 A 
ATOM     26  N7  non dame1      16.682  29.610  33.300  0.00  0.00    -0.255 NA
ATOM     27  C17 non dame1      17.493  30.363  34.001  0.00  0.00     0.209 A 
ENDBRANCH  22  23
ENDBRANCH  21  22
ENDBRANCH  20  21
ENDBRANCH  16  20
TORSDOF 4
ENDMDL
MODEL 146
REMARK VINA RESULT:      -0.0      3.598      6.720
REMARK NAME 3712638_Intermediate
REMARK  4 active torsions:
REMARK  status: ('A' for Active; 'I' for Inactive)
REMARK    1  A    between atoms: N5_16  and  C12_17 
REMARK    2  A    between atoms: C12_17  and  C13_18 
REMARK    3  A    between atoms: C13_18  and  C14_19 
REMARK    4  A    between atoms: C14_19  and  N6_20 
ROOT
ATOM      1  C1  non dame1      22.291  28.253  34.932  0.00  0.00     0.005 A 
ATOM      2  C2  non dame1      22.496  29.684  34.929  0.00  0.00     0.018 A 
ATOM      3  C3  non dame1      21.570  30.474  34.363  0.00  0.00     0.102 A 
ATOM      4  N1  non dame1      20.417  29.959  33.776  0.00  0.00    -0.273 N 
ATOM      5  C4  non dame1      20.173  28.600  33.752  0.00  0.00     0.139 A 
ATOM      6  C5  non dame1      21.196  27.719  34.379  0.00  0.00     0.051 A 
ATOM      7  N2  non dame1      19.125  28.053  33.225  0.00  0.00    -0.212 NA
ATOM      8  C6  non dame1      18.165  28.844  32.636  0.00  0.00     0.149 A 
ATOM      9  C7  non dame1      18.294  30.192  32.599  0.00  0.00     0.080 A 
ATOM     10  C8  non dame1      17.279  31.034  31.987  0.00  0.00     0.046 A 
ATOM     11  C9  non dame1      16.198  30.531  31.372  0.00  0.00     0.077 A 
ATOM     12  C10 non dame1      15.262  31.409  30.800  0.00  0.00     0.024 C 
ATOM     13  N3  non dame1      14.327  32.288  30.228  0.00  0.00    -0.096 N 
ATOM     14  C11 non dame1      16.080  29.032  31.346  0.00  0.00     0.143 A 
ATOM     15  N4  non dame1      15.073  28.459  30.647  0.00  0.00    -0.282 NA
ATOM     16  N5  non dame1      17.016  28.256  32.049  0.00  0.00    -0.315 N 
ATOM     17  C18 non dame1      19.498  30.824  33.210  0.00  0.00     0.267 A 
ATOM     18  O1  non dame1      19.620  32.029  33.190  0.00  0.00    -0.267 OA
ATOM     19  H6  non dame1      15.447  28.017  29.819  0.00  0.00     0.188 HD
ENDROOT
BRANCH  16  20
ATOM     20  C12 non dame1      16.691  26.853  32.104  0.00  0.00     0.134 C 
BRANCH  20  21
ATOM     21  C13 non dame1      15.902  26.566  33.371  0.00  0.00     0.040 C 
BRANCH  21  22
ATOM     22  C14 non dame1      16.546  25.410  34.118  0.00  0.00     0.131 C 
BRANCH  22  23
ATOM     23  N6  non dame1      17.334  25.927  35.222  0.00  0.00    -0.350 N 
ATOM     24  C15 non dame1      16.947  26.977  35.871  0.00  0.00     0.111 A 
ATOM     25  C16 non dame1      17.986  27.046  36.795  0.00  0.00     0.135 A 
ATOM     26  N7  non dame1      18.886  26.019  36.597  0.00  0.00    -0.255 NA
ATOM     27  C17 non dame1      18.431  25.347  35.570  0.00  0.00     0.209 A 
ENDBRANCH  22  23
ENDBRANCH  21  22
ENDBRANCH  20  21
ENDBRANCH  16  20
TORSDOF 4
ENDMDL
MODEL 147
REMARK VINA RESULT:      -0.0      3.850      6.350
REMARK NAME 3712638_Intermediate
REMARK  4 active torsions:
REMARK  status: ('A' for Active; 'I' for Inactive)
REMARK    1  A    between atoms: N5_16  and  C12_17 
REMARK    2  A    between atoms: C12_17  and  C13_18 
REMARK    3  A    between atoms: C13_18  and  C14_19 
REMARK    4  A    between atoms: C14_19  and  N6_20 
ROOT
ATOM      1  C1  non dame1      21.166  24.378  30.963  0.00  0.00     0.005 A 
ATOM      2  C2  non dame1      21.950  25.049  29.951  0.00  0.00     0.018 A 
ATOM      3  C3  non dame1      21.454  26.152  29.369  0.00  0.00     0.102 A 
ATOM      4  N1  non dame1      20.208  26.672  29.708  0.00  0.00    -0.273 N 
ATOM      5  C4  non dame1      19.420  26.070  30.668  0.00  0.00     0.139 A 
ATOM      6  C5  non dame1      19.963  24.846  31.318  0.00  0.00     0.051 A 
ATOM      7  N2  non dame1      18.254  26.497  31.032  0.00  0.00    -0.212 NA
ATOM      8  C6  non dame1      17.726  27.625  30.446  0.00  0.00     0.149 A 
ATOM      9  C7  non dame1      18.407  28.302  29.491  0.00  0.00     0.080 A 
ATOM     10  C8  non dame1      17.860  29.499  28.874  0.00  0.00     0.046 A 
ATOM     11  C9  non dame1      16.634  29.964  29.162  0.00  0.00     0.077 A 
ATOM     12  C10 non dame1      16.172  31.126  28.521  0.00  0.00     0.024 C 
ATOM     13  N3  non dame1      15.712  32.288  27.880  0.00  0.00    -0.096 N 
ATOM     14  C11 non dame1      15.841  29.180  30.170  0.00  0.00     0.143 A 
ATOM     15  N4  non dame1      14.558  29.531  30.422  0.00  0.00    -0.282 NA
ATOM     16  N5  non dame1      16.447  28.099  30.831  0.00  0.00    -0.315 N 
ATOM     17  C18 non dame1      19.753  27.814  29.074  0.00  0.00     0.267 A 
ATOM     18  O1  non dame1      20.375  28.416  28.226  0.00  0.00    -0.267 OA
ATOM     19  H6  non dame1      13.937  28.839  30.028  0.00  0.00     0.188 HD
ENDROOT
BRANCH  16  20
ATOM     20  C12 non dame1      15.654  27.548  31.902  0.00  0.00     0.134 C 
BRANCH  20  21
ATOM     21  C13 non dame1      16.034  28.219  33.210  0.00  0.00     0.040 C 
BRANCH  21  22
ATOM     22  C14 non dame1      16.333  27.159  34.257  0.00  0.00     0.131 C 
BRANCH  22  23
ATOM     23  N6  non dame1      17.769  27.000  34.389  0.00  0.00    -0.350 N 
ATOM     24  C15 non dame1      18.556  28.021  34.275  0.00  0.00     0.111 A 
ATOM     25  C16 non dame1      19.770  27.374  34.491  0.00  0.00     0.135 A 
ATOM     26  N7  non dame1      19.574  26.027  34.716  0.00  0.00    -0.255 NA
ATOM     27  C17 non dame1      18.281  25.841  34.620  0.00  0.00     0.209 A 
ENDBRANCH  22  23
ENDBRANCH  21  22
ENDBRANCH  20  21
ENDBRANCH  16  20
TORSDOF 4
ENDMDL
MODEL 148
REMARK VINA RESULT:      -0.0      0.000      0.000
REMARK NAME 47200577_Accepted
REMARK  5 active torsions:
REMARK  status: ('A' for Active; 'I' for Inactive)
REMARK    1  A    between atoms: C1_1  and  C2_2 
REMARK    2  A    between atoms: C1_1  and  S1_11 
REMARK    3  A    between atoms: C6_6  and  C8_8 
REMARK    4  A    between atoms: S1_11  and  C9_12 
REMARK    5  A    between atoms: C10_15  and  C11_16 
ROOT
ATOM      1  C9  non dame1      16.830  24.713  27.921  0.00  0.00     0.231 A 
ATOM      2  N1  non dame1      17.967  25.071  27.326  0.00  0.00    -0.114 NA
ATOM      3  N2  non dame1      17.942  26.448  27.291  0.00  0.00    -0.120 NA
ATOM      4  C10 non dame1      16.813  26.818  27.854  0.00  0.00     0.203 A 
ATOM      5  O3  non dame1      16.069  25.750  28.273  0.00  0.00    -0.263 OA
ENDROOT
BRANCH   1   6
ATOM      6  S1  non dame1      16.367  22.994  28.220  0.00  0.00    -0.078 SA
BRANCH   6   7
ATOM      7  C1  non dame1      17.152  22.901  29.862  0.00  0.00     0.121 C 
BRANCH   7   8
ATOM      8  C2  non dame1      16.489  23.847  30.779  0.00  0.00    -0.047 A 
ATOM      9  C3  non dame1      15.121  23.715  31.029  0.00  0.00     0.008 A 
ATOM     10  C4  non dame1      14.484  24.617  31.888  0.00  0.00     0.002 A 
ATOM     11  C5  non dame1      15.213  25.642  32.498  0.00  0.00     0.018 A 
ATOM     12  C6  non dame1      16.583  25.758  32.243  0.00  0.00     0.041 A 
ATOM     13  C7  non dame1      17.228  24.863  31.389  0.00  0.00     0.026 A 
BRANCH  12  14
ATOM     14  C8  non dame1      17.333  26.821  32.878  0.00  0.00     0.209 C 
ATOM     15  O1  non dame1      18.321  26.556  33.547  0.00  0.00    -0.644 OA
ATOM     16  O2  non dame1      16.939  28.109  32.731  0.00  0.00    -0.644 OA
ENDBRANCH  12  14
ENDBRANCH   7   8
ENDBRANCH   6   7
ENDBRANCH   1   6
BRANCH   4  17
ATOM     17  C11 non dame1      16.331  28.080  28.056  0.00  0.00     0.019 A 
ATOM     18  C12 non dame1      15.870  28.469  29.324  0.00  0.00     0.017 A 
ATOM     19  C13 non dame1      15.365  29.758  29.527  0.00  0.00     0.025 A 
ATOM     20  C14 non dame1      15.320  30.670  28.469  0.00  0.00     0.034 A 
ATOM     21  C15 non dame1      15.786  30.283  27.207  0.00  0.00     0.025 A 
ATOM     22 Cl1  non dame1      14.684  32.288  28.715  0.00  0.00    -0.084 Cl
ATOM     23  C16 non dame1      16.292  29.001  26.996  0.00  0.00     0.017 A 
ENDBRANCH   4  17
TORSDOF 5
ENDMDL
MODEL 149
REMARK VINA RESULT:      -0.0      7.589     10.335
REMARK NAME 47200577_Accepted
REMARK  5 active torsions:
REMARK  status: ('A' for Active; 'I' for Inactive)
REMARK    1  A    between atoms: C1_1  and  C2_2 
REMARK    2  A    between atoms: C1_1  and  S1_11 
REMARK    3  A    between atoms: C6_6  and  C8_8 
REMARK    4  A    between atoms: S1_11  and  C9_12 
REMARK    5  A    between atoms: C10_15  and  C11_16 
ROOT
ATOM      1  C9  non dame1      19.596  25.760  34.898  0.00  0.00     0.231 A 
ATOM      2  N1  non dame1      18.970  24.651  34.509  0.00  0.00    -0.114 NA
ATOM      3  N2  non dame1      19.595  23.624  35.183  0.00  0.00    -0.120 NA
ATOM      4  C10 non dame1      20.538  24.174  35.916  0.00  0.00     0.203 A 
ATOM      5  O3  non dame1      20.579  25.533  35.771  0.00  0.00    -0.263 OA
ENDROOT
BRANCH   1   6
ATOM      6  S1  non dame1      19.157  27.407  34.304  0.00  0.00    -0.078 SA
BRANCH   6   7
ATOM      7  C1  non dame1      17.942  27.734  35.622  0.00  0.00     0.121 C 
BRANCH   7   8
ATOM      8  C2  non dame1      18.627  27.754  36.929  0.00  0.00    -0.047 A 
ATOM      9  C3  non dame1      19.651  28.677  37.151  0.00  0.00     0.008 A 
ATOM     10  C4  non dame1      20.312  28.693  38.383  0.00  0.00     0.002 A 
ATOM     11  C5  non dame1      19.948  27.794  39.390  0.00  0.00     0.018 A 
ATOM     12  C6  non dame1      18.915  26.881  39.155  0.00  0.00     0.041 A 
ATOM     13  C7  non dame1      18.249  26.857  37.929  0.00  0.00     0.026 A 
BRANCH  12  14
ATOM     14  C8  non dame1      18.540  25.953  40.201  0.00  0.00     0.209 C 
ATOM     15  O1  non dame1      17.382  25.903  40.587  0.00  0.00    -0.644 OA
ATOM     16  O2  non dame1      19.474  25.140  40.752  0.00  0.00    -0.644 OA
ENDBRANCH  12  14
ENDBRANCH   7   8
ENDBRANCH   6   7
ENDBRANCH   1   6
BRANCH   4  17
ATOM     17  C11 non dame1      21.428  23.571  36.758  0.00  0.00     0.019 A 
ATOM     18  C12 non dame1      22.182  22.469  36.323  0.00  0.00     0.017 A 
ATOM     19  C13 non dame1      23.084  21.844  37.191  0.00  0.00     0.025 A 
ATOM     20  C14 non dame1      23.245  22.315  38.497  0.00  0.00     0.034 A 
ATOM     21  C15 non dame1      22.497  23.418  38.926  0.00  0.00     0.025 A 
ATOM     22 Cl1  non dame1      24.372  21.534  39.593  0.00  0.00    -0.084 Cl
ATOM     23  C16 non dame1      21.597  24.048  38.069  0.00  0.00     0.017 A 
ENDBRANCH   4  17
TORSDOF 5
ENDMDL
MODEL 150
REMARK VINA RESULT:      -0.0      6.919      8.846
REMARK NAME 47200577_Accepted
REMARK  5 active torsions:
REMARK  status: ('A' for Active; 'I' for Inactive)
REMARK    1  A    between atoms: C1_1  and  C2_2 
REMARK    2  A    between atoms: C1_1  and  S1_11 
REMARK    3  A    between atoms: C6_6  and  C8_8 
REMARK    4  A    between atoms: S1_11  and  C9_12 
REMARK    5  A    between atoms: C10_15  and  C11_16 
ROOT
ATOM      1  C9  non dame1      16.767  19.802  37.554  0.00  0.00     0.231 A 
ATOM      2  N1  non dame1      18.058  19.484  37.630  0.00  0.00    -0.114 NA
ATOM      3  N2  non dame1      18.610  19.908  36.441  0.00  0.00    -0.120 NA
ATOM      4  C10 non dame1      17.632  20.441  35.742  0.00  0.00     0.203 A 
ATOM      5  O3  non dame1      16.438  20.399  36.407  0.00  0.00    -0.263 OA
ENDROOT
BRANCH   1   6
ATOM      6  S1  non dame1      15.581  19.461  38.871  0.00  0.00    -0.078 SA
BRANCH   6   7
ATOM      7  C1  non dame1      15.833  21.048  39.728  0.00  0.00     0.121 C 
BRANCH   7   8
ATOM      8  C2  non dame1      15.415  22.156  38.847  0.00  0.00    -0.047 A 
ATOM      9  C3  non dame1      14.098  22.204  38.386  0.00  0.00     0.008 A 
ATOM     10  C4  non dame1      13.699  23.244  37.540  0.00  0.00     0.002 A 
ATOM     11  C5  non dame1      14.611  24.233  37.162  0.00  0.00     0.018 A 
ATOM     12  C6  non dame1      15.925  24.175  37.638  0.00  0.00     0.041 A 
ATOM     13  C7  non dame1      16.333  23.142  38.482  0.00  0.00     0.026 A 
BRANCH  12  14
ATOM     14  C8  non dame1      16.866  25.203  37.244  0.00  0.00     0.209 C 
ATOM     15  O1  non dame1      17.462  25.844  38.096  0.00  0.00    -0.644 OA
ATOM     16  O2  non dame1      17.085  25.453  35.931  0.00  0.00    -0.644 OA
ENDBRANCH  12  14
ENDBRANCH   7   8
ENDBRANCH   6   7
ENDBRANCH   1   6
BRANCH   4  17
ATOM     17  C11 non dame1      17.677  21.000  34.497  0.00  0.00     0.019 A 
ATOM     18  C12 non dame1      18.285  20.315  33.433  0.00  0.00     0.017 A 
ATOM     19  C13 non dame1      18.342  20.894  32.161  0.00  0.00     0.025 A 
ATOM     20  C14 non dame1      17.790  22.159  31.938  0.00  0.00     0.034 A 
ATOM     21  C15 non dame1      17.177  22.837  32.999  0.00  0.00     0.025 A 
ATOM     22 Cl1  non dame1      17.860  22.894  30.345  0.00  0.00    -0.084 Cl
ATOM     23  C16 non dame1      17.115  22.268  34.270  0.00  0.00     0.017 A 
ENDBRANCH   4  17
TORSDOF 5
ENDMDL
MODEL 151
REMARK VINA RESULT:      -0.0      0.000      0.000
REMARK NAME 17402166_Intermediate
REMARK  4 active torsions:
REMARK  status: ('A' for Active; 'I' for Inactive)
REMARK    1  A    between atoms: C1_1  and  C2_2 
REMARK    2  A    between atoms: C2_2  and  O1_3 
REMARK    3  A    between atoms: C14_16  and  N1_17 
REMARK       I    between atoms: N1_17  and  C15_18 
REMARK       I    between atoms: C15_18  and  N2_19 
REMARK    4  A    between atoms: N2_19  and  C16_20 
ROOT
ATOM      1  C1  non dame1      20.778  24.713  31.656  0.00  0.00     0.061 C 
ATOM      2  C3  non dame1      20.601  23.854  32.862  0.00  0.00     0.184 C 
ATOM      3  O2  non dame1      21.584  24.014  33.817  0.00  0.00    -0.350 OA
ATOM      4  C4  non dame1      22.316  25.215  33.896  0.00  0.00     0.078 C 
ATOM      5  C5  non dame1      23.310  25.222  34.868  0.00  0.00     0.038 C 
ATOM      6  C6  non dame1      23.994  26.400  35.131  0.00  0.00     0.015 C 
ATOM      7  C7  non dame1      23.649  27.586  34.471  0.00  0.00    -0.025 A 
ATOM      8  C8  non dame1      24.316  28.775  34.815  0.00  0.00     0.012 A 
ATOM      9  C9  non dame1      23.973  29.987  34.226  0.00  0.00     0.001 A 
ATOM     10  C10 non dame1      22.948  30.027  33.295  0.00  0.00     0.001 A 
ATOM     11  C11 non dame1      22.282  28.850  32.938  0.00  0.00     0.013 A 
ATOM     12  C12 non dame1      22.623  27.589  33.485  0.00  0.00    -0.015 A 
ATOM     13  C13 non dame1      21.998  26.349  33.134  0.00  0.00     0.009 C 
ATOM     14  C14 non dame1      20.952  26.184  32.037  0.00  0.00     0.131 C 
ENDROOT
BRANCH  14  15
ATOM     15  N1  non dame1      19.677  26.704  32.513  0.00  0.00    -0.334 N 
ATOM     16  C15 non dame1      18.997  27.634  31.773  0.00  0.00     0.321 C 
ATOM     17  N2  non dame1      17.799  28.122  32.221  0.00  0.00    -0.309 N 
ATOM     18  O3  non dame1      19.459  28.028  30.712  0.00  0.00    -0.247 OA
ATOM     19  H15 non dame1      17.430  27.788  33.101  0.00  0.00     0.170 HD
ATOM     20  H14 non dame1      19.251  26.412  33.381  0.00  0.00     0.165 HD
BRANCH  17  21
ATOM     21  C16 non dame1      17.105  29.068  31.467  0.00  0.00     0.036 A 
ATOM     22  C17 non dame1      16.168  28.658  30.503  0.00  0.00     0.031 A 
ATOM     23  C18 non dame1      15.480  29.608  29.740  0.00  0.00     0.026 A 
ATOM     24  C19 non dame1      15.718  30.970  29.933  0.00  0.00     0.034 A 
ATOM     25  C20 non dame1      16.643  31.379  30.897  0.00  0.00     0.026 A 
ATOM     26 Cl1  non dame1      14.860  32.169  28.974  0.00  0.00    -0.084 Cl
ATOM     27  C21 non dame1      17.332  30.440  31.667  0.00  0.00     0.031 A 
ENDBRANCH  17  21
ENDBRANCH  14  15
BRANCH   1  28
ATOM     28  C2  non dame1      22.020  24.248  30.893  0.00  0.00     0.173 C 
BRANCH  28  29
ATOM     29  O1  non dame1      22.279  22.888  31.195  0.00  0.00    -0.400 OA
ATOM     30  H4  non dame1      21.459  22.453  31.439  0.00  0.00     0.209 HD
ENDBRANCH  28  29
ENDBRANCH   1  28
TORSDOF 4
ENDMDL
MODEL 152
REMARK VINA RESULT:      -0.0      6.904      8.554
REMARK NAME 17402166_Intermediate
REMARK  4 active torsions:
REMARK  status: ('A' for Active; 'I' for Inactive)
REMARK    1  A    between atoms: C1_1  and  C2_2 
REMARK    2  A    between atoms: C2_2  and  O1_3 
REMARK    3  A    between atoms: C14_16  and  N1_17 
REMARK       I    between atoms: N1_17  and  C15_18 
REMARK       I    between atoms: C15_18  and  N2_19 
REMARK    4  A    between atoms: N2_19  and  C16_20 
ROOT
ATOM      1  C1  non dame1      13.326  26.167  31.382  0.00  0.00     0.061 C 
ATOM      2  C3  non dame1      14.391  25.351  30.731  0.00  0.00     0.184 C 
ATOM      3  O2  non dame1      14.823  25.850  29.520  0.00  0.00    -0.350 OA
ATOM      4  C4  non dame1      14.694  27.221  29.224  0.00  0.00     0.078 C 
ATOM      5  C5  non dame1      15.121  27.580  27.951  0.00  0.00     0.038 C 
ATOM      6  C6  non dame1      15.173  28.923  27.605  0.00  0.00     0.015 C 
ATOM      7  C7  non dame1      14.860  29.912  28.545  0.00  0.00    -0.025 A 
ATOM      8  C8  non dame1      14.994  31.263  28.181  0.00  0.00     0.012 A 
ATOM      9  C9  non dame1      14.745  32.282  29.095  0.00  0.00     0.001 A 
ATOM     10  C10 non dame1      14.373  31.960  30.390  0.00  0.00     0.001 A 
ATOM     11  C11 non dame1      14.229  30.620  30.763  0.00  0.00     0.013 A 
ATOM     12  C12 non dame1      14.436  29.552  29.855  0.00  0.00    -0.015 A 
ATOM     13  C13 non dame1      14.272  28.165  30.172  0.00  0.00     0.009 C 
ATOM     14  C14 non dame1      13.739  27.635  31.499  0.00  0.00     0.131 C 
ENDROOT
BRANCH  14  15
ATOM     15  N1  non dame1      14.781  27.755  32.512  0.00  0.00    -0.334 N 
ATOM     16  C15 non dame1      14.507  28.362  33.708  0.00  0.00     0.321 C 
ATOM     17  N2  non dame1      15.487  28.473  34.658  0.00  0.00    -0.309 N 
ATOM     18  O3  non dame1      13.389  28.803  33.928  0.00  0.00    -0.247 OA
ATOM     19  H15 non dame1      16.407  28.104  34.461  0.00  0.00     0.170 HD
ATOM     20  H14 non dame1      15.720  27.407  32.381  0.00  0.00     0.165 HD
BRANCH  17  21
ATOM     21  C16 non dame1      15.208  29.090  35.877  0.00  0.00     0.036 A 
ATOM     22  C17 non dame1      14.739  28.332  36.964  0.00  0.00     0.031 A 
ATOM     23  C18 non dame1      14.451  28.954  38.184  0.00  0.00     0.026 A 
ATOM     24  C19 non dame1      14.629  30.331  38.331  0.00  0.00     0.034 A 
ATOM     25  C20 non dame1      15.104  31.084  37.253  0.00  0.00     0.026 A 
ATOM     26 Cl1  non dame1      14.264  31.119  39.860  0.00  0.00    -0.084 Cl
ATOM     27  C21 non dame1      15.399  30.473  36.033  0.00  0.00     0.031 A 
ENDBRANCH  17  21
ENDBRANCH  14  15
BRANCH   1  28
ATOM     28  C2  non dame1      12.049  26.077  30.543  0.00  0.00     0.173 C 
BRANCH  28  29
ATOM     29  O1  non dame1      12.062  24.877  29.790  0.00  0.00    -0.400 OA
ATOM     30  H4  non dame1      11.491  24.974  29.025  0.00  0.00     0.209 HD
ENDBRANCH  28  29
ENDBRANCH   1  28
TORSDOF 4
ENDMDL
MODEL 153
REMARK VINA RESULT:      -0.0      7.735      9.372
REMARK NAME 17402166_Intermediate
REMARK  4 active torsions:
REMARK  status: ('A' for Active; 'I' for Inactive)
REMARK    1  A    between atoms: C1_1  and  C2_2 
REMARK    2  A    between atoms: C2_2  and  O1_3 
REMARK    3  A    between atoms: C14_16  and  N1_17 
REMARK       I    between atoms: N1_17  and  C15_18 
REMARK       I    between atoms: C15_18  and  N2_19 
REMARK    4  A    between atoms: N2_19  and  C16_20 
ROOT
ATOM      1  C1  non dame1      15.581  25.707  40.868  0.00  0.00     0.061 C 
ATOM      2  C3  non dame1      15.323  27.174  40.793  0.00  0.00     0.184 C 
ATOM      3  O2  non dame1      16.329  27.952  41.328  0.00  0.00    -0.350 OA
ATOM      4  C4  non dame1      17.647  27.462  41.406  0.00  0.00     0.078 C 
ATOM      5  C5  non dame1      18.550  28.327  42.015  0.00  0.00     0.038 C 
ATOM      6  C6  non dame1      19.900  28.008  42.016  0.00  0.00     0.015 C 
ATOM      7  C7  non dame1      20.361  26.860  41.360  0.00  0.00    -0.025 A 
ATOM      8  C8  non dame1      21.743  26.608  41.322  0.00  0.00     0.012 A 
ATOM      9  C9  non dame1      22.255  25.510  40.637  0.00  0.00     0.001 A 
ATOM     10  C10 non dame1      21.389  24.658  39.972  0.00  0.00     0.001 A 
ATOM     11  C11 non dame1      20.011  24.893  40.010  0.00  0.00     0.013 A 
ATOM     12  C12 non dame1      19.445  25.978  40.724  0.00  0.00    -0.015 A 
ATOM     13  C13 non dame1      18.042  26.248  40.823  0.00  0.00     0.009 C 
ATOM     14  C14 non dame1      16.942  25.347  40.272  0.00  0.00     0.131 C 
ENDROOT
BRANCH  14  15
ATOM     15  N1  non dame1      16.881  25.502  38.824  0.00  0.00    -0.334 N 
ATOM     16  C15 non dame1      16.959  24.402  38.013  0.00  0.00     0.321 C 
ATOM     17  N2  non dame1      16.902  24.549  36.653  0.00  0.00    -0.309 N 
ATOM     18  O3  non dame1      17.080  23.289  38.502  0.00  0.00    -0.247 OA
ATOM     19  H15 non dame1      16.802  25.476  36.262  0.00  0.00     0.170 HD
ATOM     20  H14 non dame1      16.781  26.398  38.368  0.00  0.00     0.165 HD
BRANCH  17  21
ATOM     21  C16 non dame1      16.980  23.428  35.826  0.00  0.00     0.036 A 
ATOM     22  C17 non dame1      15.811  22.748  35.443  0.00  0.00     0.031 A 
ATOM     23  C18 non dame1      15.892  21.617  34.622  0.00  0.00     0.026 A 
ATOM     24  C19 non dame1      17.133  21.160  34.175  0.00  0.00     0.034 A 
ATOM     25  C20 non dame1      18.295  21.842  34.548  0.00  0.00     0.026 A 
ATOM     26 Cl1  non dame1      17.241  19.738  33.146  0.00  0.00    -0.084 Cl
ATOM     27  C21 non dame1      18.225  22.973  35.364  0.00  0.00     0.031 A 
ENDBRANCH  17  21
ENDBRANCH  14  15
BRANCH   1  28
ATOM     28  C2  non dame1      15.552  25.273  42.336  0.00  0.00     0.173 C 
BRANCH  28  29
ATOM     29  O1  non dame1      14.766  26.184  43.083  0.00  0.00    -0.400 OA
ATOM     30  H4  non dame1      13.991  25.733  43.425  0.00  0.00     0.209 HD
ENDBRANCH  28  29
ENDBRANCH   1  28
TORSDOF 4
ENDMDL
MODEL 154
REMARK VINA RESULT:      -0.0      0.000      0.000
REMARK NAME 7975326_Intermediate
REMARK  1 active torsions:
REMARK  status: ('A' for Active; 'I' for Inactive)
REMARK    1  A    between atoms: C5_5  and  O1_17 
ROOT
ATOM      1  C1  non dame1      17.596  31.374  26.992  0.00  0.00     0.048 C 
ATOM      2  C2  non dame1      16.395  31.601  27.819  0.00  0.00    -0.061 A 
ATOM      3  C3  non dame1      15.170  31.842  27.193  0.00  0.00     0.009 A 
ATOM      4  C4  non dame1      14.029  32.071  27.971  0.00  0.00     0.038 A 
ATOM      5  C5  non dame1      14.114  32.054  29.366  0.00  0.00     0.078 A 
ATOM      6  C6  non dame1      15.347  31.804  29.978  0.00  0.00     0.024 A 
ATOM      7  C7  non dame1      15.425  31.787  31.341  0.00  0.00     0.046 A 
ATOM      8  C8  non dame1      16.530  31.563  32.014  0.00  0.00     0.044 A 
ATOM      9  C9  non dame1      16.188  31.629  33.389  0.00  0.00    -0.007 A 
ATOM     10  C10 non dame1      16.927  31.484  34.579  0.00  0.00     0.014 A 
ATOM     11  C11 non dame1      16.282  31.619  35.811  0.00  0.00     0.001 A 
ATOM     12  C12 non dame1      14.920  31.895  35.868  0.00  0.00     0.002 A 
ATOM     13  C13 non dame1      14.166  32.044  34.700  0.00  0.00     0.030 A 
ATOM     14  C14 non dame1      14.821  31.906  33.464  0.00  0.00     0.043 A 
ATOM     15  N1  non dame1      14.360  32.002  32.162  0.00  0.00    -0.355 N 
ATOM     16  C15 non dame1      16.490  31.574  29.211  0.00  0.00     0.023 A 
ATOM     17  H11 non dame1      13.414  32.194  31.865  0.00  0.00     0.166 HD
ENDROOT
BRANCH   5  18
ATOM     18  O1  non dame1      13.063  32.266  30.091  0.00  0.00    -0.360 OA
ATOM     19  H13 non dame1      12.277  32.197  29.543  0.00  0.00     0.217 HD
ENDBRANCH   5  18
TORSDOF 1
ENDMDL
MODEL 155
REMARK VINA RESULT:      -0.0      3.205      6.054
REMARK NAME 7975326_Intermediate
REMARK  1 active torsions:
REMARK  status: ('A' for Active; 'I' for Inactive)
REMARK    1  A    between atoms: C5_5  and  O1_17 
ROOT
ATOM      1  C1  non dame1      18.167  27.786  35.291  0.00  0.00     0.048 C 
ATOM      2  C2  non dame1      18.407  28.171  33.887  0.00  0.00    -0.061 A 
ATOM      3  C3  non dame1      19.612  27.814  33.276  0.00  0.00     0.009 A 
ATOM      4  C4  non dame1      19.851  28.187  31.949  0.00  0.00     0.038 A 
ATOM      5  C5  non dame1      18.890  28.909  31.236  0.00  0.00     0.078 A 
ATOM      6  C6  non dame1      17.685  29.253  31.859  0.00  0.00     0.024 A 
ATOM      7  C7  non dame1      16.748  29.957  31.158  0.00  0.00     0.046 A 
ATOM      8  C8  non dame1      15.588  30.330  31.647  0.00  0.00     0.044 A 
ATOM      9  C9  non dame1      14.918  31.029  30.611  0.00  0.00    -0.007 A 
ATOM     10  C10 non dame1      13.663  31.664  30.525  0.00  0.00     0.014 A 
ATOM     11  C11 non dame1      13.288  32.288  29.333  0.00  0.00     0.001 A 
ATOM     12  C12 non dame1      14.142  32.286  28.236  0.00  0.00     0.002 A 
ATOM     13  C13 non dame1      15.392  31.663  28.297  0.00  0.00     0.030 A 
ATOM     14  C14 non dame1      15.764  31.036  29.500  0.00  0.00     0.043 A 
ATOM     15  N1  non dame1      16.912  30.355  29.866  0.00  0.00    -0.355 N 
ATOM     16  C15 non dame1      17.436  28.885  33.182  0.00  0.00     0.023 A 
ATOM     17  H11 non dame1      17.725  30.181  29.293  0.00  0.00     0.166 HD
ENDROOT
BRANCH   5  18
ATOM     18  O1  non dame1      19.107  29.258  30.009  0.00  0.00    -0.360 OA
ATOM     19  H13 non dame1      18.353  29.753  29.679  0.00  0.00     0.217 HD
ENDBRANCH   5  18
TORSDOF 1
ENDMDL
MODEL 156
REMARK VINA RESULT:      -0.0      2.782      6.063
REMARK NAME 7975326_Intermediate
REMARK  1 active torsions:
REMARK  status: ('A' for Active; 'I' for Inactive)
REMARK    1  A    between atoms: C5_5  and  O1_17 
ROOT
ATOM      1  C1  non dame1      18.366  29.640  35.321  0.00  0.00     0.048 C 
ATOM      2  C2  non dame1      17.266  29.027  34.552  0.00  0.00    -0.061 A 
ATOM      3  C3  non dame1      16.770  27.780  34.943  0.00  0.00     0.009 A 
ATOM      4  C4  non dame1      15.736  27.187  34.212  0.00  0.00     0.038 A 
ATOM      5  C5  non dame1      15.198  27.838  33.099  0.00  0.00     0.078 A 
ATOM      6  C6  non dame1      15.699  29.089  32.723  0.00  0.00     0.024 A 
ATOM      7  C7  non dame1      15.169  29.723  31.636  0.00  0.00     0.046 A 
ATOM      8  C8  non dame1      15.566  30.896  31.200  0.00  0.00     0.044 A 
ATOM      9  C9  non dame1      14.771  31.197  30.064  0.00  0.00    -0.007 A 
ATOM     10  C10 non dame1      14.725  32.288  29.176  0.00  0.00     0.014 A 
ATOM     11  C11 non dame1      13.808  32.280  28.122  0.00  0.00     0.001 A 
ATOM     12  C12 non dame1      12.943  31.205  27.947  0.00  0.00     0.002 A 
ATOM     13  C13 non dame1      12.970  30.110  28.817  0.00  0.00     0.030 A 
ATOM     14  C14 non dame1      13.896  30.125  29.875  0.00  0.00     0.043 A 
ATOM     15  N1  non dame1      14.163  29.208  30.876  0.00  0.00    -0.355 N 
ATOM     16  C15 non dame1      16.730  29.690  33.447  0.00  0.00     0.023 A 
ATOM     17  H11 non dame1      13.706  28.319  31.025  0.00  0.00     0.166 HD
ENDROOT
BRANCH   5  18
ATOM     18  O1  non dame1      14.241  27.294  32.417  0.00  0.00    -0.360 OA
ATOM     19  H13 non dame1      14.124  26.384  32.701  0.00  0.00     0.217 HD
ENDBRANCH   5  18
TORSDOF 1
ENDMDL
MODEL 157
REMARK VINA RESULT:       0.0      0.000      0.000
REMARK NAME 85201144_Intermediate
REMARK  8 active torsions:
REMARK  status: ('A' for Active; 'I' for Inactive)
REMARK    1  A    between atoms: N1_4  and  C5_6 
REMARK    2  A    between atoms: C5_6  and  C6_7 
REMARK    3  A    between atoms: C6_7  and  C7_8 
REMARK    4  A    between atoms: C7_8  and  N2_9 
REMARK       I    between atoms: N2_9  and  C8_10 
REMARK    5  A    between atoms: C8_10  and  C9_11 
REMARK    6  A    between atoms: C10_12  and  C11_13 
REMARK    7  A    between atoms: C14_16  and  S1_19 
REMARK    8  A    between atoms: C21_27  and  O3_30 
ROOT
ATOM      1  C9  non dame1      21.005  28.499  39.299  0.00  0.00     0.061 A 
ATOM      2  C10 non dame1      22.239  28.619  38.712  0.00  0.00     0.032 A 
ATOM      3  S2  non dame1      23.164  29.718  39.653  0.00  0.00    -0.088 SA
ATOM      4  C18 non dame1      21.899  29.982  40.781  0.00  0.00     0.017 A 
ATOM      5  C19 non dame1      21.944  30.826  41.911  0.00  0.00     0.022 A 
ATOM      6  C20 non dame1      20.816  30.915  42.722  0.00  0.00     0.038 A 
ATOM      7  C21 non dame1      19.669  30.192  42.433  0.00  0.00     0.069 A 
ATOM      8  C22 non dame1      19.635  29.358  41.311  0.00  0.00     0.050 A 
ATOM      9  C23 non dame1      20.765  29.238  40.457  0.00  0.00     0.001 A 
ENDROOT
BRANCH   1  10
ATOM     10  C8  non dame1      20.013  27.655  38.749  0.00  0.00     0.253 C 
ATOM     11  N2  non dame1      19.096  28.164  37.869  0.00  0.00    -0.357 N 
ATOM     12  H13 non dame1      19.173  29.146  37.648  0.00  0.00     0.162 HD
ATOM     13  O4  non dame1      19.975  26.475  39.057  0.00  0.00    -0.268 OA
BRANCH  11  14
ATOM     14  C7  non dame1      18.070  27.293  37.299  0.00  0.00     0.124 C 
BRANCH  14  15
ATOM     15  C6  non dame1      18.387  27.025  35.837  0.00  0.00     0.039 C 
BRANCH  15  16
ATOM     16  C5  non dame1      18.131  25.561  35.522  0.00  0.00     0.127 C 
BRANCH  16  17
ATOM     17  N1  non dame1      19.317  24.807  35.763  0.00  0.00    -0.352 N 
ATOM     18  C3  non dame1      19.609  23.900  36.859  0.00  0.00     0.219 C 
ATOM     19  C2  non dame1      21.112  23.675  36.774  0.00  0.00     0.104 C 
ATOM     20  O5  non dame1      18.768  23.472  37.619  0.00  0.00    -0.273 OA
ATOM     21  C1  non dame1      21.385  23.785  35.281  0.00  0.00     0.029 C 
ATOM     22  C4  non dame1      20.440  24.895  34.840  0.00  0.00     0.126 C 
ENDBRANCH  16  17
ENDBRANCH  15  16
ENDBRANCH  14  15
ENDBRANCH  11  14
ENDBRANCH   1  10
BRANCH   2  23
ATOM     23  C11 non dame1      22.695  28.000  37.585  0.00  0.00    -0.018 A 
ATOM     24  C12 non dame1      23.466  26.828  37.684  0.00  0.00     0.014 A 
ATOM     25  C13 non dame1      23.944  26.199  36.525  0.00  0.00     0.024 A 
ATOM     26  C14 non dame1      23.655  26.730  35.268  0.00  0.00     0.058 A 
ATOM     27  C15 non dame1      22.882  27.893  35.170  0.00  0.00     0.024 A 
ATOM     28  C16 non dame1      22.399  28.526  36.316  0.00  0.00     0.014 A 
BRANCH  26  29
ATOM     29  S1  non dame1      24.254  25.948  33.810  0.00  0.00     0.171 S 
ATOM     30  C17 non dame1      25.646  26.849  33.186  0.00  0.00     0.167 C 
ATOM     31  O1  non dame1      23.051  25.919  32.663  0.00  0.00    -0.223 OA
ATOM     32  O2  non dame1      24.717  24.394  34.166  0.00  0.00    -0.223 OA
ENDBRANCH  26  29
ENDBRANCH   2  23
BRANCH   7  33
ATOM     33  O3  non dame1      18.573  30.297  43.241  0.00  0.00    -0.356 OA
ATOM     34  C24 non dame1      17.578  29.380  42.811  0.00  0.00     0.210 C 
ENDBRANCH   7  33
TORSDOF 8
ENDMDL
MODEL 158
REMARK VINA RESULT:       0.0      4.391      8.895
REMARK NAME 85201144_Intermediate
REMARK  8 active torsions:
REMARK  status: ('A' for Active; 'I' for Inactive)
REMARK    1  A    between atoms: N1_4  and  C5_6 
REMARK    2  A    between atoms: C5_6  and  C6_7 
REMARK    3  A    between atoms: C6_7  and  C7_8 
REMARK    4  A    between atoms: C7_8  and  N2_9 
REMARK       I    between atoms: N2_9  and  C8_10 
REMARK    5  A    between atoms: C8_10  and  C9_11 
REMARK    6  A    between atoms: C10_12  and  C11_13 
REMARK    7  A    between atoms: C14_16  and  S1_19 
REMARK    8  A    between atoms: C21_27  and  O3_30 
ROOT
ATOM      1  C9  non dame1      18.632  23.177  37.575  0.00  0.00     0.061 A 
ATOM      2  C10 non dame1      17.393  23.115  36.990  0.00  0.00     0.032 A 
ATOM      3  S2  non dame1      17.371  21.749  35.950  0.00  0.00    -0.088 SA
ATOM      4  C18 non dame1      18.987  21.309  36.317  0.00  0.00     0.017 A 
ATOM      5  C19 non dame1      19.697  20.207  35.794  0.00  0.00     0.022 A 
ATOM      6  C20 non dame1      21.010  20.002  36.211  0.00  0.00     0.038 A 
ATOM      7  C21 non dame1      21.614  20.858  37.120  0.00  0.00     0.069 A 
ATOM      8  C22 non dame1      20.901  21.946  37.631  0.00  0.00     0.050 A 
ATOM      9  C23 non dame1      19.559  22.191  37.234  0.00  0.00     0.001 A 
ENDROOT
BRANCH   1  10
ATOM     10  C8  non dame1      18.957  24.203  38.491  0.00  0.00     0.253 C 
ATOM     11  N2  non dame1      19.557  25.350  38.046  0.00  0.00    -0.357 N 
ATOM     12  H13 non dame1      19.745  25.411  37.056  0.00  0.00     0.162 HD
ATOM     13  O4  non dame1      18.703  24.067  39.677  0.00  0.00    -0.268 OA
BRANCH  11  14
ATOM     14  C7  non dame1      19.894  26.412  38.991  0.00  0.00     0.124 C 
BRANCH  14  15
ATOM     15  C6  non dame1      18.942  27.582  38.800  0.00  0.00     0.039 C 
BRANCH  15  16
ATOM     16  C5  non dame1      18.524  28.124  40.156  0.00  0.00     0.127 C 
BRANCH  16  17
ATOM     17  N1  non dame1      17.355  27.441  40.602  0.00  0.00    -0.352 N 
ATOM     18  C3  non dame1      17.231  26.430  41.637  0.00  0.00     0.219 C 
ATOM     19  C2  non dame1      15.846  25.837  41.425  0.00  0.00     0.104 C 
ATOM     20  O5  non dame1      18.100  26.189  42.447  0.00  0.00    -0.273 OA
ATOM     21  C1  non dame1      15.053  27.019  40.885  0.00  0.00     0.029 C 
ATOM     22  C4  non dame1      16.062  27.731  39.995  0.00  0.00     0.126 C 
ENDBRANCH  16  17
ENDBRANCH  15  16
ENDBRANCH  14  15
ENDBRANCH  11  14
ENDBRANCH   1  10
BRANCH   2  23
ATOM     23  C11 non dame1      16.338  23.961  37.170  0.00  0.00    -0.018 A 
ATOM     24  C12 non dame1      15.317  23.636  38.082  0.00  0.00     0.014 A 
ATOM     25  C13 non dame1      14.227  24.501  38.256  0.00  0.00     0.024 A 
ATOM     26  C14 non dame1      14.151  25.690  37.531  0.00  0.00     0.058 A 
ATOM     27  C15 non dame1      15.170  26.015  36.628  0.00  0.00     0.024 A 
ATOM     28  C16 non dame1      16.261  25.163  36.448  0.00  0.00     0.014 A 
BRANCH  26  29
ATOM     29  S1  non dame1      12.785  26.779  37.743  0.00  0.00     0.171 S 
ATOM     30  C17 non dame1      11.669  26.598  36.379  0.00  0.00     0.167 C 
ATOM     31  O1  non dame1      13.332  28.346  37.811  0.00  0.00    -0.223 OA
ATOM     32  O2  non dame1      11.995  26.406  39.156  0.00  0.00    -0.223 OA
ENDBRANCH  26  29
ENDBRANCH   2  23
BRANCH   7  33
ATOM     33  O3  non dame1      22.903  20.639  37.512  0.00  0.00    -0.356 OA
ATOM     34  C24 non dame1      23.265  21.589  38.502  0.00  0.00     0.210 C 
ENDBRANCH   7  33
TORSDOF 8
ENDMDL
MODEL 159
REMARK VINA RESULT:       0.0      6.543      9.197
REMARK NAME 85201144_Intermediate
REMARK  8 active torsions:
REMARK  status: ('A' for Active; 'I' for Inactive)
REMARK    1  A    between atoms: N1_4  and  C5_6 
REMARK    2  A    between atoms: C5_6  and  C6_7 
REMARK    3  A    between atoms: C6_7  and  C7_8 
REMARK    4  A    between atoms: C7_8  and  N2_9 
REMARK       I    between atoms: N2_9  and  C8_10 
REMARK    5  A    between atoms: C8_10  and  C9_11 
REMARK    6  A    between atoms: C10_12  and  C11_13 
REMARK    7  A    between atoms: C14_16  and  S1_19 
REMARK    8  A    between atoms: C21_27  and  O3_30 
ROOT
ATOM      1  C9  non dame1      14.566  27.082  35.637  0.00  0.00     0.061 A 
ATOM      2  C10 non dame1      13.450  26.727  34.923  0.00  0.00     0.032 A 
ATOM      3  S2  non dame1      12.284  26.128  36.033  0.00  0.00    -0.088 SA
ATOM      4  C18 non dame1      13.302  26.363  37.393  0.00  0.00     0.017 A 
ATOM      5  C19 non dame1      12.988  26.074  38.738  0.00  0.00     0.022 A 
ATOM      6  C20 non dame1      13.943  26.334  39.717  0.00  0.00     0.038 A 
ATOM      7  C21 non dame1      15.180  26.867  39.385  0.00  0.00     0.069 A 
ATOM      8  C22 non dame1      15.481  27.150  38.050  0.00  0.00     0.050 A 
ATOM      9  C23 non dame1      14.534  26.900  37.020  0.00  0.00     0.001 A 
ENDROOT
BRANCH   1  10
ATOM     10  C8  non dame1      15.706  27.615  34.993  0.00  0.00     0.253 C 
ATOM     11  N2  non dame1      16.719  26.782  34.601  0.00  0.00    -0.357 N 
ATOM     12  H13 non dame1      16.600  25.798  34.795  0.00  0.00     0.162 HD
ATOM     13  O4  non dame1      15.787  28.815  34.787  0.00  0.00    -0.268 OA
BRANCH  11  14
ATOM     14  C7  non dame1      17.898  27.330  33.935  0.00  0.00     0.124 C 
BRANCH  14  15
ATOM     15  C6  non dame1      17.869  26.957  32.462  0.00  0.00     0.039 C 
BRANCH  15  16
ATOM     16  C5  non dame1      18.298  28.151  31.627  0.00  0.00     0.127 C 
BRANCH  16  17
ATOM     17  N1  non dame1      17.155  28.938  31.298  0.00  0.00    -0.352 N 
ATOM     18  C3  non dame1      16.750  30.223  31.840  0.00  0.00     0.219 C 
ATOM     19  C2  non dame1      15.310  30.393  31.378  0.00  0.00     0.104 C 
ATOM     20  O5  non dame1      17.476  30.931  32.503  0.00  0.00    -0.273 OA
ATOM     21  C1  non dame1      15.297  29.664  30.041  0.00  0.00     0.029 C 
ATOM     22  C4  non dame1      16.209  28.471  30.293  0.00  0.00     0.126 C 
ENDBRANCH  16  17
ENDBRANCH  15  16
ENDBRANCH  14  15
ENDBRANCH  11  14
ENDBRANCH   1  10
BRANCH   2  23
ATOM     23  C11 non dame1      13.253  26.813  33.576  0.00  0.00    -0.018 A 
ATOM     24  C12 non dame1      12.578  27.919  33.028  0.00  0.00     0.014 A 
ATOM     25  C13 non dame1      12.366  28.001  31.645  0.00  0.00     0.024 A 
ATOM     26  C14 non dame1      12.828  26.990  30.803  0.00  0.00     0.058 A 
ATOM     27  C15 non dame1      13.506  25.892  31.347  0.00  0.00     0.024 A 
ATOM     28  C16 non dame1      13.724  25.802  32.723  0.00  0.00     0.014 A 
BRANCH  26  29
ATOM     29  S1  non dame1      12.564  27.084  29.065  0.00  0.00     0.171 S 
ATOM     30  C17 non dame1      11.234  26.005  28.611  0.00  0.00     0.167 C 
ATOM     31  O1  non dame1      13.949  26.627  28.269  0.00  0.00    -0.223 OA
ATOM     32  O2  non dame1      12.176  28.645  28.649  0.00  0.00    -0.223 OA
ENDBRANCH  26  29
ENDBRANCH   2  23
BRANCH   7  33
ATOM     33  O3  non dame1      16.102  27.111  40.362  0.00  0.00    -0.356 OA
ATOM     34  C24 non dame1      17.197  27.827  39.811  0.00  0.00     0.210 C 
ENDBRANCH   7  33
TORSDOF 8
ENDMDL
MODEL 160
REMARK VINA RESULT:      -0.0      0.000      0.000
REMARK NAME 24297861_Intermediate
REMARK  5 active torsions:
REMARK  status: ('A' for Active; 'I' for Inactive)
REMARK    1  A    between atoms: C5_5  and  C8_8 
REMARK    2  A    between atoms: C17_18  and  S1_22 
REMARK    3  A    between atoms: S1_22  and  C20_23 
REMARK    4  A    between atoms: C20_23  and  C21_24 
REMARK       I    between atoms: C21_24  and  N3_25 
REMARK    5  A    between atoms: N3_25  and  C22_26 
ROOT
ATOM      1  C8  non dame1      15.619  23.792  36.983  0.00  0.00    -0.001 A 
ATOM      2  C9  non dame1      16.388  23.321  38.048  0.00  0.00     0.046 A 
ATOM      3  C10 non dame1      16.841  24.234  38.983  0.00  0.00     0.069 A 
ATOM      4  C11 non dame1      17.620  23.774  40.084  0.00  0.00    -0.007 A 
ATOM      5  C12 non dame1      17.924  22.409  40.216  0.00  0.00     0.014 A 
ATOM      6  C13 non dame1      18.678  21.955  41.305  0.00  0.00     0.001 A 
ATOM      7  C14 non dame1      19.140  22.859  42.266  0.00  0.00     0.000 A 
ATOM      8  C15 non dame1      18.844  24.220  42.130  0.00  0.00     0.001 A 
ATOM      9  C16 non dame1      18.093  24.681  41.046  0.00  0.00     0.014 A 
ATOM     10  N1  non dame1      16.591  25.558  38.922  0.00  0.00    -0.240 NA
ATOM     11  C17 non dame1      15.864  26.018  37.892  0.00  0.00     0.115 A 
ATOM     12  C18 non dame1      15.368  25.166  36.904  0.00  0.00     0.077 A 
ATOM     13  C19 non dame1      14.612  25.684  35.827  0.00  0.00     0.023 C 
ATOM     14  N2  non dame1      13.857  26.202  34.749  0.00  0.00    -0.096 N 
ENDROOT
BRANCH  11  15
ATOM     15  S1  non dame1      15.494  27.726  37.727  0.00  0.00    -0.100 SA
BRANCH  15  16
ATOM     16  C20 non dame1      14.543  27.833  39.278  0.00  0.00     0.184 C 
BRANCH  16  17
ATOM     17  C21 non dame1      13.463  26.805  39.271  0.00  0.00     0.233 C 
ATOM     18  N3  non dame1      13.530  25.736  40.124  0.00  0.00    -0.309 N 
ATOM     19  H16 non dame1      14.329  25.688  40.739  0.00  0.00     0.170 HD
ATOM     20  O2  non dame1      12.518  26.917  38.504  0.00  0.00    -0.272 OA
BRANCH  18  21
ATOM     21  C22 non dame1      12.480  24.736  40.117  0.00  0.00     0.160 A 
ATOM     22  C23 non dame1      12.551  23.605  39.385  0.00  0.00     0.087 A 
ATOM     23  C24 non dame1      11.344  22.984  39.634  0.00  0.00     0.078 A 
ATOM     24  C25 non dame1      10.769  21.749  39.128  0.00  0.00     0.079 C 
ATOM     25  O1  non dame1      10.631  23.727  40.520  0.00  0.00    -0.216 OA
ATOM     26  N4  non dame1      11.340  24.862  40.850  0.00  0.00    -0.110 NA
ENDBRANCH  18  21
ENDBRANCH  16  17
ENDBRANCH  15  16
ENDBRANCH  11  15
BRANCH   1  27
ATOM     27  C5  non dame1      15.101  22.897  36.001  0.00  0.00    -0.024 A 
ATOM     28  C4  non dame1      15.838  22.603  34.850  0.00  0.00     0.013 A 
ATOM     29  C3  non dame1      15.325  21.722  33.891  0.00  0.00     0.007 A 
ATOM     30  C2  non dame1      14.074  21.135  34.092  0.00  0.00    -0.062 A 
ATOM     31  C1  non dame1      13.546  20.197  33.083  0.00  0.00     0.048 C 
ATOM     32  C7  non dame1      13.326  21.428  35.234  0.00  0.00     0.007 A 
ATOM     33  C6  non dame1      13.846  22.306  36.185  0.00  0.00     0.013 A 
ENDBRANCH   1  27
TORSDOF 5
ENDMDL
MODEL 161
REMARK VINA RESULT:      -0.0      7.271      9.632
REMARK NAME 24297861_Intermediate
REMARK  5 active torsions:
REMARK  status: ('A' for Active; 'I' for Inactive)
REMARK    1  A    between atoms: C5_5  and  C8_8 
REMARK    2  A    between atoms: C17_18  and  S1_22 
REMARK    3  A    between atoms: S1_22  and  C20_23 
REMARK    4  A    between atoms: C20_23  and  C21_24 
REMARK       I    between atoms: C21_24  and  N3_25 
REMARK    5  A    between atoms: N3_25  and  C22_26 
ROOT
ATOM      1  C8  non dame1      20.487  25.538  35.853  0.00  0.00    -0.001 A 
ATOM      2  C9  non dame1      20.206  26.895  36.017  0.00  0.00     0.046 A 
ATOM      3  C10 non dame1      21.062  27.650  36.798  0.00  0.00     0.069 A 
ATOM      4  C11 non dame1      20.801  29.041  36.972  0.00  0.00    -0.007 A 
ATOM      5  C12 non dame1      19.686  29.635  36.357  0.00  0.00     0.014 A 
ATOM      6  C13 non dame1      19.437  31.003  36.516  0.00  0.00     0.001 A 
ATOM      7  C14 non dame1      20.293  31.787  37.295  0.00  0.00     0.000 A 
ATOM      8  C15 non dame1      21.399  31.194  37.914  0.00  0.00     0.001 A 
ATOM      9  C16 non dame1      21.654  29.829  37.761  0.00  0.00     0.014 A 
ATOM     10  N1  non dame1      22.150  27.151  37.420  0.00  0.00    -0.240 NA
ATOM     11  C17 non dame1      22.415  25.843  37.277  0.00  0.00     0.115 A 
ATOM     12  C18 non dame1      21.604  25.008  36.507  0.00  0.00     0.077 A 
ATOM     13  C19 non dame1      21.907  23.633  36.384  0.00  0.00     0.023 C 
ATOM     14  N2  non dame1      22.209  22.256  36.261  0.00  0.00    -0.096 N 
ENDROOT
BRANCH  11  15
ATOM     15  S1  non dame1      23.804  25.104  38.055  0.00  0.00    -0.100 SA
BRANCH  15  16
ATOM     16  C20 non dame1      25.038  26.101  37.158  0.00  0.00     0.184 C 
BRANCH  16  17
ATOM     17  C21 non dame1      24.811  25.969  35.690  0.00  0.00     0.233 C 
ATOM     18  N3  non dame1      24.351  27.040  34.971  0.00  0.00    -0.309 N 
ATOM     19  H16 non dame1      24.180  27.896  35.477  0.00  0.00     0.170 HD
ATOM     20  O2  non dame1      25.035  24.907  35.129  0.00  0.00    -0.272 OA
BRANCH  18  21
ATOM     21  C22 non dame1      24.129  26.913  33.543  0.00  0.00     0.160 A 
ATOM     22  C23 non dame1      22.927  26.605  33.013  0.00  0.00     0.087 A 
ATOM     23  C24 non dame1      23.180  26.540  31.658  0.00  0.00     0.078 A 
ATOM     24  C25 non dame1      22.324  26.217  30.529  0.00  0.00     0.079 C 
ATOM     25  O1  non dame1      24.483  26.846  31.429  0.00  0.00    -0.216 OA
ATOM     26  N4  non dame1      25.119  27.092  32.627  0.00  0.00    -0.110 NA
ENDBRANCH  18  21
ENDBRANCH  16  17
ENDBRANCH  15  16
ENDBRANCH  11  15
BRANCH   1  27
ATOM     27  C5  non dame1      19.656  24.712  35.039  0.00  0.00    -0.024 A 
ATOM     28  C4  non dame1      18.567  24.036  35.594  0.00  0.00     0.013 A 
ATOM     29  C3  non dame1      17.755  23.228  34.789  0.00  0.00     0.007 A 
ATOM     30  C2  non dame1      18.037  23.105  33.427  0.00  0.00    -0.062 A 
ATOM     31  C1  non dame1      17.169  22.262  32.583  0.00  0.00     0.048 C 
ATOM     32  C7  non dame1      19.128  23.769  32.864  0.00  0.00     0.007 A 
ATOM     33  C6  non dame1      19.931  24.573  33.674  0.00  0.00     0.013 A 
ENDBRANCH   1  27
TORSDOF 5
ENDMDL
MODEL 162
REMARK VINA RESULT:      -0.0      8.230     10.390
REMARK NAME 24297861_Intermediate
REMARK  5 active torsions:
REMARK  status: ('A' for Active; 'I' for Inactive)
REMARK    1  A    between atoms: C5_5  and  C8_8 
REMARK    2  A    between atoms: C17_18  and  S1_22 
REMARK    3  A    between atoms: S1_22  and  C20_23 
REMARK    4  A    between atoms: C20_23  and  C21_24 
REMARK       I    between atoms: C21_24  and  N3_25 
REMARK    5  A    between atoms: N3_25  and  C22_26 
ROOT
ATOM      1  C8  non dame1      19.754  23.910  29.080  0.00  0.00    -0.001 A 
ATOM      2  C9  non dame1      21.027  23.498  28.686  0.00  0.00     0.046 A 
ATOM      3  C10 non dame1      22.120  24.192  29.174  0.00  0.00     0.069 A 
ATOM      4  C11 non dame1      23.432  23.783  28.792  0.00  0.00    -0.007 A 
ATOM      5  C12 non dame1      23.610  22.688  27.929  0.00  0.00     0.014 A 
ATOM      6  C13 non dame1      24.898  22.278  27.566  0.00  0.00     0.001 A 
ATOM      7  C14 non dame1      26.016  22.960  28.053  0.00  0.00     0.000 A 
ATOM      8  C15 non dame1      25.839  24.055  28.906  0.00  0.00     0.001 A 
ATOM      9  C16 non dame1      24.557  24.472  29.273  0.00  0.00     0.014 A 
ATOM     10  N1  non dame1      22.028  25.251  30.003  0.00  0.00    -0.240 NA
ATOM     11  C17 non dame1      20.805  25.660  30.373  0.00  0.00     0.115 A 
ATOM     12  C18 non dame1      19.649  25.018  29.928  0.00  0.00     0.077 A 
ATOM     13  C19 non dame1      18.374  25.479  30.330  0.00  0.00     0.023 C 
ATOM     14  N2  non dame1      17.099  25.941  30.732  0.00  0.00    -0.096 N 
ENDROOT
BRANCH  11  15
ATOM     15  S1  non dame1      20.587  27.034  31.444  0.00  0.00    -0.100 SA
BRANCH  15  16
ATOM     16  C20 non dame1      21.454  26.274  32.856  0.00  0.00     0.184 C 
BRANCH  16  17
ATOM     17  C21 non dame1      20.839  24.950  33.162  0.00  0.00     0.233 C 
ATOM     18  N3  non dame1      21.542  23.799  32.927  0.00  0.00    -0.309 N 
ATOM     19  H16 non dame1      22.471  23.896  32.546  0.00  0.00     0.170 HD
ATOM     20  O2  non dame1      19.709  24.893  33.624  0.00  0.00    -0.272 OA
BRANCH  18  21
ATOM     21  C22 non dame1      20.944  22.511  33.225  0.00  0.00     0.160 A 
ATOM     22  C23 non dame1      20.307  21.767  32.297  0.00  0.00     0.087 A 
ATOM     23  C24 non dame1      19.863  20.673  33.010  0.00  0.00     0.078 A 
ATOM     24  C25 non dame1      19.077  19.516  32.617  0.00  0.00     0.079 C 
ATOM     25  O1  non dame1      20.279  20.779  34.299  0.00  0.00    -0.216 OA
ATOM     26  N4  non dame1      20.980  21.953  34.466  0.00  0.00    -0.110 NA
ENDBRANCH  18  21
ENDBRANCH  16  17
ENDBRANCH  15  16
ENDBRANCH  11  15
BRANCH   1  27
ATOM     27  C5  non dame1      18.589  23.219  28.631  0.00  0.00    -0.024 A 
ATOM     28  C4  non dame1      17.942  23.610  27.456  0.00  0.00     0.013 A 
ATOM     29  C3  non dame1      16.801  22.928  27.020  0.00  0.00     0.007 A 
ATOM     30  C2  non dame1      16.315  21.850  27.764  0.00  0.00    -0.062 A 
ATOM     31  C1  non dame1      15.118  21.127  27.291  0.00  0.00     0.048 C 
ATOM     32  C7  non dame1      16.949  21.457  28.943  0.00  0.00     0.007 A 
ATOM     33  C6  non dame1      18.087  22.143  29.369  0.00  0.00     0.013 A 
ENDBRANCH   1  27
TORSDOF 5
ENDMDL
MODEL 163
REMARK VINA RESULT:      -0.0      0.000      0.000
REMARK NAME 17408593_Intermediate
REMARK  4 active torsions:
REMARK  status: ('A' for Active; 'I' for Inactive)
REMARK    1  A    between atoms: C2_2  and  N1_3 
REMARK    2  A    between atoms: N1_3  and  C3_4 
REMARK    3  A    between atoms: C8_10  and  C12_17 
REMARK    4  A    between atoms: C11_14  and  N4_15 
ROOT
ATOM      1  C3  non dame1      16.478  31.307  30.330  0.00  0.00     0.169 A 
ATOM      2  N2  non dame1      17.047  30.266  29.662  0.00  0.00    -0.205 NA
ATOM      3  C4  non dame1      17.918  29.629  30.485  0.00  0.00     0.153 A 
ATOM      4  C5  non dame1      17.963  30.223  31.735  0.00  0.00     0.089 A 
ATOM      5  C6  non dame1      18.794  29.734  32.751  0.00  0.00     0.111 A 
ATOM      6  C7  non dame1      19.592  28.602  32.445  0.00  0.00     0.059 A 
ATOM      7  C8  non dame1      20.512  28.017  33.480  0.00  0.00     0.107 A 
ATOM      8  C9  non dame1      20.474  28.744  34.794  0.00  0.00     0.072 A 
ATOM      9  C10 non dame1      21.320  28.229  35.792  0.00  0.00     0.021 C 
ATOM     10  N3  non dame1      22.165  27.715  36.791  0.00  0.00    -0.096 N 
ATOM     11  C11 non dame1      19.689  29.812  35.008  0.00  0.00     0.158 A 
ATOM     12  O1  non dame1      18.810  30.377  34.029  0.00  0.00    -0.291 OA
ATOM     13  C19 non dame1      19.519  28.023  31.153  0.00  0.00     0.257 A 
ATOM     14  N5  non dame1      18.686  28.544  30.199  0.00  0.00    -0.306 N 
ATOM     15  O2  non dame1      20.223  26.991  30.818  0.00  0.00    -0.267 OA
ATOM     16  S1  non dame1      17.015  31.377  31.732  0.00  0.00    -0.046 SA
ATOM     17  H17 non dame1      18.637  28.126  29.281  0.00  0.00     0.170 HD
ENDROOT
BRANCH   7  18
ATOM     18  C12 non dame1      21.901  28.065  32.955  0.00  0.00    -0.044 A 
ATOM     19  C13 non dame1      22.678  26.896  32.894  0.00  0.00     0.009 A 
ATOM     20  C14 non dame1      23.990  26.944  32.411  0.00  0.00     0.007 A 
ATOM     21  C15 non dame1      24.537  28.157  31.981  0.00  0.00    -0.062 A 
ATOM     22  C16 non dame1      25.921  28.214  31.473  0.00  0.00     0.048 C 
ATOM     23  C17 non dame1      23.762  29.320  32.036  0.00  0.00     0.007 A 
ATOM     24  C18 non dame1      22.451  29.281  32.514  0.00  0.00     0.009 A 
ENDBRANCH   7  18
BRANCH  11  25
ATOM     25  N4  non dame1      19.868  30.233  36.243  0.00  0.00    -0.379 N 
ATOM     26  H8  non dame1      20.699  30.753  36.484  0.00  0.00     0.158 HD
ATOM     27  H9  non dame1      19.173  30.036  36.950  0.00  0.00     0.158 HD
ENDBRANCH  11  25
BRANCH   1  28
ATOM     28  N1  non dame1      15.501  32.277  29.906  0.00  0.00    -0.369 N 
ATOM     29  H6  non dame1      15.746  32.946  29.190  0.00  0.00     0.161 HD
BRANCH  28  30
ATOM     30  C2  non dame1      14.173  32.288  30.509  0.00  0.00     0.117 C 
ATOM     31  C1  non dame1      13.459  30.995  30.183  0.00  0.00     0.026 C 
ENDBRANCH  28  30
ENDBRANCH   1  28
TORSDOF 4
ENDMDL
MODEL 164
REMARK VINA RESULT:      -0.0      3.004      4.732
REMARK NAME 17408593_Intermediate
REMARK  4 active torsions:
REMARK  status: ('A' for Active; 'I' for Inactive)
REMARK    1  A    between atoms: C2_2  and  N1_3 
REMARK    2  A    between atoms: N1_3  and  C3_4 
REMARK    3  A    between atoms: C8_10  and  C12_17 
REMARK    4  A    between atoms: C11_14  and  N4_15 
ROOT
ATOM      1  C3  non dame1      15.290  29.728  30.192  0.00  0.00     0.169 A 
ATOM      2  N2  non dame1      14.541  29.481  31.301  0.00  0.00    -0.205 NA
ATOM      3  C4  non dame1      15.363  29.351  32.375  0.00  0.00     0.153 A 
ATOM      4  C5  non dame1      16.692  29.508  32.019  0.00  0.00     0.089 A 
ATOM      5  C6  non dame1      17.721  29.416  32.965  0.00  0.00     0.111 A 
ATOM      6  C7  non dame1      17.344  29.154  34.307  0.00  0.00     0.059 A 
ATOM      7  C8  non dame1      18.388  29.039  35.382  0.00  0.00     0.107 A 
ATOM      8  C9  non dame1      19.790  29.228  34.878  0.00  0.00     0.072 A 
ATOM      9  C10 non dame1      20.800  29.130  35.852  0.00  0.00     0.021 C 
ATOM     10  N3  non dame1      21.809  29.032  36.824  0.00  0.00    -0.096 N 
ATOM     11  C11 non dame1      20.068  29.475  33.587  0.00  0.00     0.158 A 
ATOM     12  O1  non dame1      19.081  29.585  32.556  0.00  0.00    -0.291 OA
ATOM     13  C19 non dame1      15.972  28.999  34.631  0.00  0.00     0.257 A 
ATOM     14  N5  non dame1      15.009  29.100  33.663  0.00  0.00    -0.306 N 
ATOM     15  O2  non dame1      15.570  28.758  35.837  0.00  0.00    -0.267 OA
ATOM     16  S1  non dame1      16.749  29.770  30.550  0.00  0.00    -0.046 SA
ATOM     17  H17 non dame1      14.033  28.990  33.900  0.00  0.00     0.170 HD
ENDROOT
BRANCH   7  18
ATOM     18  C12 non dame1      18.286  27.690  35.995  0.00  0.00    -0.044 A 
ATOM     19  C13 non dame1      18.355  26.539  35.192  0.00  0.00     0.009 A 
ATOM     20  C14 non dame1      18.248  25.268  35.768  0.00  0.00     0.007 A 
ATOM     21  C15 non dame1      18.076  25.135  37.149  0.00  0.00    -0.062 A 
ATOM     22  C16 non dame1      17.959  23.797  37.762  0.00  0.00     0.048 C 
ATOM     23  C17 non dame1      18.013  26.281  37.949  0.00  0.00     0.007 A 
ATOM     24  C18 non dame1      18.121  27.552  37.384  0.00  0.00     0.009 A 
ENDBRANCH   7  18
BRANCH  11  25
ATOM     25  N4  non dame1      21.373  29.593  33.446  0.00  0.00    -0.379 N 
ATOM     26  H8  non dame1      21.955  28.768  33.425  0.00  0.00     0.158 HD
ATOM     27  H9  non dame1      21.790  30.508  33.359  0.00  0.00     0.158 HD
ENDBRANCH  11  25
BRANCH   1  28
ATOM     28  N1  non dame1      14.900  29.941  28.821  0.00  0.00    -0.369 N 
ATOM     29  H6  non dame1      14.482  29.183  28.301  0.00  0.00     0.161 HD
BRANCH  28  30
ATOM     30  C2  non dame1      15.109  31.243  28.196  0.00  0.00     0.117 C 
ATOM     31  C1  non dame1      14.272  32.284  28.905  0.00  0.00     0.026 C 
ENDBRANCH  28  30
ENDBRANCH   1  28
TORSDOF 4
ENDMDL
MODEL 165
REMARK VINA RESULT:      -0.0      4.416      7.410
REMARK NAME 17408593_Intermediate
REMARK  4 active torsions:
REMARK  status: ('A' for Active; 'I' for Inactive)
REMARK    1  A    between atoms: C2_2  and  N1_3 
REMARK    2  A    between atoms: N1_3  and  C3_4 
REMARK    3  A    between atoms: C8_10  and  C12_17 
REMARK    4  A    between atoms: C11_14  and  N4_15 
ROOT
ATOM      1  C3  non dame1      17.950  23.243  31.332  0.00  0.00     0.169 A 
ATOM      2  N2  non dame1      18.678  24.234  30.748  0.00  0.00    -0.205 NA
ATOM      3  C4  non dame1      18.268  25.435  31.232  0.00  0.00     0.153 A 
ATOM      4  C5  non dame1      17.251  25.288  32.159  0.00  0.00     0.089 A 
ATOM      5  C6  non dame1      16.671  26.394  32.794  0.00  0.00     0.111 A 
ATOM      6  C7  non dame1      17.170  27.675  32.445  0.00  0.00     0.059 A 
ATOM      7  C8  non dame1      16.601  28.912  33.081  0.00  0.00     0.107 A 
ATOM      8  C9  non dame1      15.505  28.628  34.068  0.00  0.00     0.072 A 
ATOM      9  C10 non dame1      14.943  29.759  34.688  0.00  0.00     0.021 C 
ATOM     10  N3  non dame1      14.382  30.888  35.307  0.00  0.00    -0.096 N 
ATOM     11  C11 non dame1      15.086  27.383  34.346  0.00  0.00     0.158 A 
ATOM     12  O1  non dame1      15.621  26.198  33.746  0.00  0.00    -0.291 OA
ATOM     13  C19 non dame1      18.213  27.783  31.491  0.00  0.00     0.257 A 
ATOM     14  N5  non dame1      18.743  26.666  30.904  0.00  0.00    -0.306 N 
ATOM     15  O2  non dame1      18.708  28.925  31.135  0.00  0.00    -0.267 OA
ATOM     16  S1  non dame1      16.960  23.830  32.299  0.00  0.00    -0.046 SA
ATOM     17  H17 non dame1      19.486  26.749  30.225  0.00  0.00     0.170 HD
ENDROOT
BRANCH   7  18
ATOM     18  C12 non dame1      16.053  29.782  32.008  0.00  0.00    -0.044 A 
ATOM     19  C13 non dame1      15.106  29.279  31.101  0.00  0.00     0.009 A 
ATOM     20  C14 non dame1      14.599  30.096  30.084  0.00  0.00     0.007 A 
ATOM     21  C15 non dame1      15.029  31.421  29.966  0.00  0.00    -0.062 A 
ATOM     22  C16 non dame1      14.500  32.286  28.894  0.00  0.00     0.048 C 
ATOM     23  C17 non dame1      15.968  31.923  30.873  0.00  0.00     0.007 A 
ATOM     24  C18 non dame1      16.477  31.117  31.892  0.00  0.00     0.009 A 
ENDBRANCH   7  18
BRANCH  11  25
ATOM     25  N4  non dame1      14.122  27.446  35.242  0.00  0.00    -0.379 N 
ATOM     26  H8  non dame1      14.289  27.132  36.187  0.00  0.00     0.158 HD
ATOM     27  H9  non dame1      13.216  27.812  34.984  0.00  0.00     0.158 HD
ENDBRANCH  11  25
BRANCH   1  28
ATOM     28  N1  non dame1      17.998  21.813  31.161  0.00  0.00    -0.369 N 
ATOM     29  H6  non dame1      17.729  21.410  30.275  0.00  0.00     0.161 HD
BRANCH  28  30
ATOM     30  C2  non dame1      18.434  20.961  32.263  0.00  0.00     0.117 C 
ATOM     31  C1  non dame1      19.877  21.265  32.597  0.00  0.00     0.026 C 
ENDBRANCH  28  30
ENDBRANCH   1  28
TORSDOF 4
ENDMDL
MODEL 166
REMARK VINA RESULT:      -0.0      0.000      0.000
REMARK NAME 26731583_Intermediate
REMARK  2 active torsions:
REMARK  status: ('A' for Active; 'I' for Inactive)
REMARK       I    between atoms: N1_1  and  C1_2 
REMARK    1  A    between atoms: N1_1  and  C13_19 
REMARK       I    between atoms: C1_2  and  N2_3 
REMARK    2  A    between atoms: N2_3  and  C2_4 
ROOT
ATOM      1  C2  non dame1      14.835  26.274  28.944  0.00  0.00     0.095 C 
ATOM      2  C3  non dame1      14.098  27.412  28.698  0.00  0.00     0.085 C 
ATOM      3  C4  non dame1      12.647  27.465  28.644  0.00  0.00     0.302 C 
ATOM      4  O1  non dame1      11.933  26.518  28.890  0.00  0.00    -0.259 OA
ATOM      5  O2  non dame1      12.111  28.712  28.282  0.00  0.00    -0.274 OA
ATOM      6  C5  non dame1      12.906  29.885  28.164  0.00  0.00     0.090 A 
ATOM      7  C6  non dame1      12.199  31.073  27.969  0.00  0.00     0.038 A 
ATOM      8  C7  non dame1      12.892  32.279  27.949  0.00  0.00     0.003 A 
ATOM      9  C8  non dame1      14.272  32.288  28.152  0.00  0.00     0.001 A 
ATOM     10  C9  non dame1      14.973  31.090  28.342  0.00  0.00     0.015 A 
ATOM     11  C10 non dame1      14.304  29.865  28.301  0.00  0.00     0.010 A 
ATOM     12  C11 non dame1      14.929  28.560  28.481  0.00  0.00     0.003 C 
ATOM     13  C12 non dame1      16.265  28.207  28.381  0.00  0.00     0.065 C 
ATOM     14  S1  non dame1      16.507  26.575  28.822  0.00  0.00    -0.082 SA
ENDROOT
BRANCH   1  15
ATOM     15  N2  non dame1      14.265  24.991  29.267  0.00  0.00    -0.302 N 
ATOM     16  C1  non dame1      14.176  24.592  30.574  0.00  0.00     0.325 C 
ATOM     17  N1  non dame1      13.636  23.372  30.882  0.00  0.00    -0.309 N 
ATOM     18  O3  non dame1      14.580  25.324  31.464  0.00  0.00    -0.247 OA
ATOM     19  H1  non dame1      13.307  22.778  30.135  0.00  0.00     0.170 HD
ATOM     20  H2  non dame1      13.920  24.356  28.561  0.00  0.00     0.171 HD
BRANCH  17  21
ATOM     21  C13 non dame1      13.546  22.966  32.214  0.00  0.00     0.036 A 
ATOM     22  C14 non dame1      14.600  22.252  32.810  0.00  0.00     0.029 A 
ATOM     23  C15 non dame1      14.503  21.834  34.142  0.00  0.00     0.002 A 
ATOM     24  C16 non dame1      13.361  22.127  34.891  0.00  0.00     0.000 A 
ATOM     25  C17 non dame1      12.315  22.844  34.298  0.00  0.00     0.002 A 
ATOM     26  C18 non dame1      12.401  23.267  32.972  0.00  0.00     0.029 A 
ENDBRANCH  17  21
ENDBRANCH   1  15
TORSDOF 2
ENDMDL
MODEL 167
REMARK VINA RESULT:      -0.0      4.623      8.371
REMARK NAME 26731583_Intermediate
REMARK  2 active torsions:
REMARK  status: ('A' for Active; 'I' for Inactive)
REMARK       I    between atoms: N1_1  and  C1_2 
REMARK    1  A    between atoms: N1_1  and  C13_19 
REMARK       I    between atoms: C1_2  and  N2_3 
REMARK    2  A    between atoms: N2_3  and  C2_4 
ROOT
ATOM      1  C2  non dame1      17.809  28.345  30.175  0.00  0.00     0.095 C 
ATOM      2  C3  non dame1      18.268  28.321  31.474  0.00  0.00     0.085 C 
ATOM      3  C4  non dame1      18.444  29.494  32.313  0.00  0.00     0.302 C 
ATOM      4  O1  non dame1      18.129  30.613  31.974  0.00  0.00    -0.259 OA
ATOM      5  O2  non dame1      19.016  29.243  33.571  0.00  0.00    -0.274 OA
ATOM      6  C5  non dame1      19.231  27.929  34.070  0.00  0.00     0.090 A 
ATOM      7  C6  non dame1      19.644  27.851  35.401  0.00  0.00     0.038 A 
ATOM      8  C7  non dame1      19.774  26.602  35.999  0.00  0.00     0.003 A 
ATOM      9  C8  non dame1      19.465  25.451  35.273  0.00  0.00     0.001 A 
ATOM     10  C9  non dame1      19.057  25.539  33.937  0.00  0.00     0.015 A 
ATOM     11  C10 non dame1      18.982  26.781  33.300  0.00  0.00     0.010 A 
ATOM     12  C11 non dame1      18.574  26.992  31.916  0.00  0.00     0.003 C 
ATOM     13  C12 non dame1      18.517  26.084  30.871  0.00  0.00     0.065 C 
ATOM     14  S1  non dame1      17.838  26.793  29.474  0.00  0.00    -0.082 SA
ENDROOT
BRANCH   1  15
ATOM     15  N2  non dame1      17.359  29.532  29.494  0.00  0.00    -0.302 N 
ATOM     16  C1  non dame1      16.021  29.816  29.426  0.00  0.00     0.325 C 
ATOM     17  N1  non dame1      15.592  30.943  28.779  0.00  0.00    -0.309 N 
ATOM     18  O3  non dame1      15.211  29.062  29.943  0.00  0.00    -0.247 OA
ATOM     19  H1  non dame1      16.274  31.556  28.356  0.00  0.00     0.170 HD
ATOM     20  H2  non dame1      17.996  30.181  29.054  0.00  0.00     0.171 HD
BRANCH  17  21
ATOM     21  C13 non dame1      14.228  31.231  28.710  0.00  0.00     0.036 A 
ATOM     22  C14 non dame1      13.616  32.004  29.712  0.00  0.00     0.029 A 
ATOM     23  C15 non dame1      12.246  32.282  29.648  0.00  0.00     0.002 A 
ATOM     24  C16 non dame1      11.478  31.798  28.587  0.00  0.00     0.000 A 
ATOM     25  C17 non dame1      12.090  31.034  27.587  0.00  0.00     0.002 A 
ATOM     26  C18 non dame1      13.455  30.753  27.639  0.00  0.00     0.029 A 
ENDBRANCH  17  21
ENDBRANCH   1  15
TORSDOF 2
ENDMDL
MODEL 168
REMARK VINA RESULT:      -0.0      4.176      4.857
REMARK NAME 26731583_Intermediate
REMARK  2 active torsions:
REMARK  status: ('A' for Active; 'I' for Inactive)
REMARK       I    between atoms: N1_1  and  C1_2 
REMARK    1  A    between atoms: N1_1  and  C13_19 
REMARK       I    between atoms: C1_2  and  N2_3 
REMARK    2  A    between atoms: N2_3  and  C2_4 
ROOT
ATOM      1  C2  non dame1      14.456  28.409  33.039  0.00  0.00     0.095 C 
ATOM      2  C3  non dame1      14.404  29.365  32.048  0.00  0.00     0.085 C 
ATOM      3  C4  non dame1      15.510  30.228  31.671  0.00  0.00     0.302 C 
ATOM      4  O1  non dame1      16.622  30.139  32.143  0.00  0.00    -0.259 OA
ATOM      5  O2  non dame1      15.203  31.196  30.699  0.00  0.00    -0.274 OA
ATOM      6  C5  non dame1      13.967  31.214  29.996  0.00  0.00     0.090 A 
ATOM      7  C6  non dame1      13.888  32.129  28.945  0.00  0.00     0.038 A 
ATOM      8  C7  non dame1      12.754  32.138  28.138  0.00  0.00     0.003 A 
ATOM      9  C8  non dame1      11.730  31.218  28.371  0.00  0.00     0.001 A 
ATOM     10  C9  non dame1      11.819  30.307  29.431  0.00  0.00     0.015 A 
ATOM     11  C10 non dame1      12.919  30.326  30.291  0.00  0.00     0.010 A 
ATOM     12  C11 non dame1      13.115  29.431  31.425  0.00  0.00     0.003 C 
ATOM     13  C12 non dame1      12.186  28.655  32.099  0.00  0.00     0.065 C 
ATOM     14  S1  non dame1      12.939  27.670  33.272  0.00  0.00    -0.082 SA
ENDROOT
BRANCH   1  15
ATOM     15  N2  non dame1      15.643  28.074  33.784  0.00  0.00    -0.302 N 
ATOM     16  C1  non dame1      16.399  26.994  33.416  0.00  0.00     0.325 C 
ATOM     17  N1  non dame1      17.527  26.674  34.123  0.00  0.00    -0.309 N 
ATOM     18  O3  non dame1      16.066  26.315  32.456  0.00  0.00    -0.247 OA
ATOM     19  H1  non dame1      17.788  27.244  34.914  0.00  0.00     0.170 HD
ATOM     20  H2  non dame1      15.952  28.609  34.583  0.00  0.00     0.171 HD
BRANCH  17  21
ATOM     21  C13 non dame1      18.296  25.572  33.748  0.00  0.00     0.036 A 
ATOM     22  C14 non dame1      19.348  25.723  32.827  0.00  0.00     0.029 A 
ATOM     23  C15 non dame1      20.110  24.615  32.442  0.00  0.00     0.002 A 
ATOM     24  C16 non dame1      19.837  23.352  32.972  0.00  0.00     0.000 A 
ATOM     25  C17 non dame1      18.794  23.205  33.894  0.00  0.00     0.002 A 
ATOM     26  C18 non dame1      18.028  24.303  34.287  0.00  0.00     0.029 A 
ENDBRANCH  17  21
ENDBRANCH   1  15
TORSDOF 2
ENDMDL
MODEL 169
REMARK VINA RESULT:      -0.0      0.000      0.000
REMARK NAME 14741545_Accepted
REMARK  3 active torsions:
REMARK  status: ('A' for Active; 'I' for Inactive)
REMARK    1  A    between atoms: C6_8  and  C7_9 
REMARK    2  A    between atoms: C10_12  and  O2_17 
REMARK    3  A    between atoms: C11_13  and  O1_15 
ROOT
ATOM      1  C1  non dame1      20.792  27.353  30.854  0.00  0.00     0.051 A 
ATOM      2  C2  non dame1      22.186  27.559  30.822  0.00  0.00     0.090 A 
ATOM      3  N1  non dame1      22.705  28.768  30.413  0.00  0.00    -0.373 N 
ATOM      4  C3  non dame1      21.896  29.810  30.023  0.00  0.00     0.121 A 
ATOM      5  C4  non dame1      20.513  29.618  30.051  0.00  0.00     0.103 A 
ATOM      6  C5  non dame1      19.979  28.417  30.457  0.00  0.00     0.090 A 
ATOM      7  N2  non dame1      18.640  28.498  30.390  0.00  0.00    -0.226 NA
ATOM      8  C6  non dame1      18.370  29.751  29.942  0.00  0.00     0.161 A 
ATOM      9  N3  non dame1      19.511  30.453  29.729  0.00  0.00    -0.225 NA
ATOM     10  H3  non dame1      23.707  28.894  30.398  0.00  0.00     0.164 HD
ENDROOT
BRANCH   8  11
ATOM     11  C7  non dame1      17.085  30.366  29.689  0.00  0.00     0.015 A 
ATOM     12  C8  non dame1      17.012  31.683  29.204  0.00  0.00     0.018 A 
ATOM     13  C9  non dame1      15.769  32.281  28.972  0.00  0.00     0.040 A 
ATOM     14  C10 non dame1      14.590  31.572  29.217  0.00  0.00     0.101 A 
ATOM     15  C11 non dame1      14.663  30.259  29.694  0.00  0.00     0.102 A 
ATOM     16  C12 non dame1      15.898  29.652  29.928  0.00  0.00     0.055 A 
BRANCH  14  17
ATOM     17  O2  non dame1      13.373  32.151  28.995  0.00  0.00    -0.353 OA
ATOM     18  C14 non dame1      13.154  32.274  27.599  0.00  0.00     0.210 C 
ENDBRANCH  14  17
BRANCH  15  19
ATOM     19  O1  non dame1      13.508  29.570  29.931  0.00  0.00    -0.353 OA
ATOM     20  C13 non dame1      13.345  28.563  28.946  0.00  0.00     0.210 C 
ENDBRANCH  15  19
ENDBRANCH   8  11
TORSDOF 3
ENDMDL
MODEL 170
REMARK VINA RESULT:      -0.0      5.853      8.322
REMARK NAME 14741545_Accepted
REMARK  3 active torsions:
REMARK  status: ('A' for Active; 'I' for Inactive)
REMARK    1  A    between atoms: C6_8  and  C7_9 
REMARK    2  A    between atoms: C10_12  and  O2_17 
REMARK    3  A    between atoms: C11_13  and  O1_15 
ROOT
ATOM      1  C1  non dame1      14.007  32.288  29.985  0.00  0.00     0.051 A 
ATOM      2  C2  non dame1      12.902  32.200  29.116  0.00  0.00     0.090 A 
ATOM      3  N1  non dame1      11.794  31.461  29.466  0.00  0.00    -0.373 N 
ATOM      4  C3  non dame1      11.720  30.785  30.662  0.00  0.00     0.121 A 
ATOM      5  C4  non dame1      12.811  30.865  31.532  0.00  0.00     0.103 A 
ATOM      6  C5  non dame1      13.924  31.599  31.197  0.00  0.00     0.090 A 
ATOM      7  N2  non dame1      14.815  31.509  32.199  0.00  0.00    -0.226 NA
ATOM      8  C6  non dame1      14.234  30.718  33.137  0.00  0.00     0.161 A 
ATOM      9  N3  non dame1      13.000  30.313  32.742  0.00  0.00    -0.225 NA
ATOM     10  H3  non dame1      11.013  31.412  28.828  0.00  0.00     0.164 HD
ENDROOT
BRANCH   8  11
ATOM     11  C7  non dame1      14.758  30.295  34.417  0.00  0.00     0.015 A 
ATOM     12  C8  non dame1      14.010  29.437  35.241  0.00  0.00     0.018 A 
ATOM     13  C9  non dame1      14.513  29.038  36.485  0.00  0.00     0.040 A 
ATOM     14  C10 non dame1      15.763  29.490  36.916  0.00  0.00     0.101 A 
ATOM     15  C11 non dame1      16.510  30.340  36.092  0.00  0.00     0.102 A 
ATOM     16  C12 non dame1      16.019  30.741  34.850  0.00  0.00     0.055 A 
BRANCH  14  17
ATOM     17  O2  non dame1      16.258  29.107  38.130  0.00  0.00    -0.353 OA
ATOM     18  C14 non dame1      15.539  29.762  39.163  0.00  0.00     0.210 C 
ENDBRANCH  14  17
BRANCH  15  19
ATOM     19  O1  non dame1      17.732  30.777  36.517  0.00  0.00    -0.353 OA
ATOM     20  C13 non dame1      17.652  32.151  36.856  0.00  0.00     0.210 C 
ENDBRANCH  15  19
ENDBRANCH   8  11
TORSDOF 3
ENDMDL
MODEL 171
REMARK VINA RESULT:      -0.0      3.792      7.162
REMARK NAME 14741545_Accepted
REMARK  3 active torsions:
REMARK  status: ('A' for Active; 'I' for Inactive)
REMARK    1  A    between atoms: C6_8  and  C7_9 
REMARK    2  A    between atoms: C10_12  and  O2_17 
REMARK    3  A    between atoms: C11_13  and  O1_15 
ROOT
ATOM      1  C1  non dame1      14.531  32.030  30.864  0.00  0.00     0.051 A 
ATOM      2  C2  non dame1      13.695  32.107  29.732  0.00  0.00     0.090 A 
ATOM      3  N1  non dame1      14.124  31.636  28.511  0.00  0.00    -0.373 N 
ATOM      4  C3  non dame1      15.370  31.078  28.346  0.00  0.00     0.121 A 
ATOM      5  C4  non dame1      16.209  30.996  29.461  0.00  0.00     0.103 A 
ATOM      6  C5  non dame1      15.794  31.462  30.687  0.00  0.00     0.090 A 
ATOM      7  N2  non dame1      16.781  31.264  31.577  0.00  0.00    -0.226 NA
ATOM      8  C6  non dame1      17.790  30.679  30.883  0.00  0.00     0.161 A 
ATOM      9  N3  non dame1      17.454  30.506  29.579  0.00  0.00    -0.225 NA
ATOM     10  H3  non dame1      13.508  31.701  27.714  0.00  0.00     0.164 HD
ENDROOT
BRANCH   8  11
ATOM     11  C7  non dame1      19.089  30.252  31.357  0.00  0.00     0.015 A 
ATOM     12  C8  non dame1      19.443  30.423  32.706  0.00  0.00     0.018 A 
ATOM     13  C9  non dame1      20.704  30.021  33.161  0.00  0.00     0.040 A 
ATOM     14  C10 non dame1      21.619  29.444  32.277  0.00  0.00     0.101 A 
ATOM     15  C11 non dame1      21.263  29.268  30.935  0.00  0.00     0.102 A 
ATOM     16  C12 non dame1      20.009  29.664  30.471  0.00  0.00     0.055 A 
BRANCH  14  17
ATOM     17  O2  non dame1      22.852  29.052  32.714  0.00  0.00    -0.353 OA
ATOM     18  C14 non dame1      23.650  30.196  32.972  0.00  0.00     0.210 C 
ENDBRANCH  14  17
BRANCH  15  19
ATOM     19  O1  non dame1      22.161  28.702  30.076  0.00  0.00    -0.353 OA
ATOM     20  C13 non dame1      22.664  29.693  29.195  0.00  0.00     0.210 C 
ENDBRANCH  15  19
ENDBRANCH   8  11
TORSDOF 3
ENDMDL
MODEL 172
REMARK VINA RESULT:      -0.0      0.000      0.000
REMARK NAME 26646894_Intermediate
REMARK  9 active torsions:
REMARK  status: ('A' for Active; 'I' for Inactive)
REMARK    1  A    between atoms: N1_4  and  C5_6 
REMARK    2  A    between atoms: C8_9  and  C9_10 
REMARK    3  A    between atoms: C9_10  and  N2_11 
REMARK    4  A    between atoms: N2_11  and  C10_12 
REMARK    5  A    between atoms: N2_11  and  C15_18 
REMARK    6  A    between atoms: C10_12  and  C11_13 
REMARK    7  A    between atoms: C15_18  and  C16_19 
REMARK    8  A    between atoms: C18_21  and  O3_27 
REMARK    9  A    between atoms: C21_24  and  O2_25 
ROOT
ATOM      1  N2  non dame1      24.570  23.742  29.512  0.00  0.00    -0.061 N 
ATOM      2  H11 non dame1      24.113  23.414  30.351  0.00  0.00     0.280 HD
ENDROOT
BRANCH   1   3
ATOM      3  C9  non dame1      23.570  24.155  28.545  0.00  0.00     0.273 C 
BRANCH   3   4
ATOM      4  C8  non dame1      22.252  23.630  28.946  0.00  0.00    -0.032 A 
ATOM      5  C7  non dame1      21.655  22.588  28.231  0.00  0.00     0.011 A 
ATOM      6  C6  non dame1      20.406  22.092  28.618  0.00  0.00     0.030 A 
ATOM      7  C5  non dame1      19.742  22.635  29.732  0.00  0.00     0.037 A 
ATOM      8  C25 non dame1      20.340  23.688  30.445  0.00  0.00     0.030 A 
ATOM      9  C24 non dame1      21.588  24.175  30.052  0.00  0.00     0.011 A 
BRANCH   7  10
ATOM     10  N1  non dame1      18.511  22.137  30.125  0.00  0.00    -0.318 N 
ATOM     11  C3  non dame1      18.222  20.998  30.978  0.00  0.00     0.224 C 
ATOM     12  C2  non dame1      16.739  20.732  30.766  0.00  0.00     0.105 C 
ATOM     13  O4  non dame1      19.052  20.450  31.670  0.00  0.00    -0.273 OA
ATOM     14  C1  non dame1      16.183  22.123  30.494  0.00  0.00     0.029 C 
ATOM     15  C4  non dame1      17.284  22.776  29.670  0.00  0.00     0.133 C 
ENDBRANCH   7  10
ENDBRANCH   3   4
ENDBRANCH   1   3
BRANCH   1  16
ATOM     16  C10 non dame1      25.425  24.870  29.835  0.00  0.00     0.267 C 
BRANCH  16  17
ATOM     17  C11 non dame1      24.931  25.528  31.099  0.00  0.00     0.147 C 
ATOM     18  C12 non dame1      24.682  24.518  32.112  0.00  0.00     0.036 C 
ATOM     19  C13 non dame1      26.024  24.394  32.787  0.00  0.00     0.029 C 
ATOM     20  C14 non dame1      26.522  25.830  32.779  0.00  0.00     0.168 C 
ATOM     21  O1  non dame1      25.955  26.453  31.608  0.00  0.00    -0.384 OA
ENDBRANCH  16  17
ENDBRANCH   1  16
BRANCH   1  22
ATOM     22  C15 non dame1      25.373  22.671  28.952  0.00  0.00     0.276 C 
BRANCH  22  23
ATOM     23  C16 non dame1      25.917  21.833  30.053  0.00  0.00     0.004 A 
ATOM     24  C17 non dame1      27.292  21.853  30.343  0.00  0.00     0.048 A 
ATOM     25  C18 non dame1      27.807  21.058  31.373  0.00  0.00     0.069 A 
ATOM     26  C19 non dame1      26.957  20.240  32.121  0.00  0.00     0.039 A 
ATOM     27  C20 non dame1      25.589  20.224  31.835  0.00  0.00     0.040 A 
ATOM     28  C21 non dame1      25.065  21.015  30.813  0.00  0.00     0.076 A 
BRANCH  25  29
ATOM     29  O3  non dame1      29.146  21.081  31.644  0.00  0.00    -0.356 OA
ATOM     30  C23 non dame1      29.529  22.390  32.028  0.00  0.00     0.210 C 
ENDBRANCH  25  29
BRANCH  28  31
ATOM     31  O2  non dame1      23.725  21.005  30.537  0.00  0.00    -0.355 OA
ATOM     32  C22 non dame1      22.995  21.151  31.744  0.00  0.00     0.210 C 
ENDBRANCH  28  31
ENDBRANCH  22  23
ENDBRANCH   1  22
TORSDOF 9
ENDMDL
MODEL 173
REMARK VINA RESULT:       0.0      8.550     10.537
REMARK NAME 26646894_Intermediate
REMARK  9 active torsions:
REMARK  status: ('A' for Active; 'I' for Inactive)
REMARK    1  A    between atoms: N1_4  and  C5_6 
REMARK    2  A    between atoms: C8_9  and  C9_10 
REMARK    3  A    between atoms: C9_10  and  N2_11 
REMARK    4  A    between atoms: N2_11  and  C10_12 
REMARK    5  A    between atoms: N2_11  and  C15_18 
REMARK    6  A    between atoms: C10_12  and  C11_13 
REMARK    7  A    between atoms: C15_18  and  C16_19 
REMARK    8  A    between atoms: C18_21  and  O3_27 
REMARK    9  A    between atoms: C21_24  and  O2_25 
ROOT
ATOM      1  N2  non dame1      23.595  27.464  41.044  0.00  0.00    -0.061 N 
ATOM      2  H11 non dame1      23.306  26.734  40.409  0.00  0.00     0.280 HD
ENDROOT
BRANCH   1   3
ATOM      3  C9  non dame1      23.114  28.746  40.560  0.00  0.00     0.273 C 
BRANCH   3   4
ATOM      4  C8  non dame1      22.693  28.612  39.153  0.00  0.00    -0.032 A 
ATOM      5  C7  non dame1      23.457  29.176  38.126  0.00  0.00     0.011 A 
ATOM      6  C6  non dame1      23.054  29.044  36.794  0.00  0.00     0.030 A 
ATOM      7  C5  non dame1      21.880  28.339  36.475  0.00  0.00     0.037 A 
ATOM      8  C25 non dame1      21.109  27.781  37.509  0.00  0.00     0.030 A 
ATOM      9  C24 non dame1      21.520  27.917  38.835  0.00  0.00     0.011 A 
BRANCH   7  10
ATOM     10  N1  non dame1      21.486  28.197  35.155  0.00  0.00    -0.318 N 
ATOM     11  C3  non dame1      21.905  27.201  34.184  0.00  0.00     0.224 C 
ATOM     12  C2  non dame1      21.424  27.747  32.849  0.00  0.00     0.105 C 
ATOM     13  O4  non dame1      22.503  26.188  34.477  0.00  0.00    -0.273 OA
ATOM     14  C1  non dame1      20.160  28.506  33.230  0.00  0.00     0.029 C 
ATOM     15  C4  non dame1      20.526  29.125  34.573  0.00  0.00     0.133 C 
ENDBRANCH   7  10
ENDBRANCH   3   4
ENDBRANCH   1   3
BRANCH   1  16
ATOM     16  C10 non dame1      23.041  27.208  42.361  0.00  0.00     0.267 C 
BRANCH  16  17
ATOM     17  C11 non dame1      21.814  26.341  42.231  0.00  0.00     0.147 C 
ATOM     18  C12 non dame1      22.097  25.221  41.350  0.00  0.00     0.036 C 
ATOM     19  C13 non dame1      22.637  24.186  42.303  0.00  0.00     0.029 C 
ATOM     20  C14 non dame1      21.784  24.412  43.541  0.00  0.00     0.168 C 
ATOM     21  O1  non dame1      21.438  25.812  43.550  0.00  0.00    -0.384 OA
ENDBRANCH  16  17
ENDBRANCH   1  16
BRANCH   1  22
ATOM     22  C15 non dame1      25.043  27.488  41.124  0.00  0.00     0.276 C 
BRANCH  22  23
ATOM     23  C16 non dame1      25.568  26.105  40.982  0.00  0.00     0.004 A 
ATOM     24  C17 non dame1      26.149  25.452  42.084  0.00  0.00     0.048 A 
ATOM     25  C18 non dame1      26.653  24.154  41.948  0.00  0.00     0.069 A 
ATOM     26  C19 non dame1      26.580  23.496  40.718  0.00  0.00     0.039 A 
ATOM     27  C20 non dame1      25.999  24.144  39.625  0.00  0.00     0.040 A 
ATOM     28  C21 non dame1      25.491  25.437  39.748  0.00  0.00     0.076 A 
BRANCH  25  29
ATOM     29  O3  non dame1      27.219  23.530  43.024  0.00  0.00    -0.356 OA
ATOM     30  C23 non dame1      26.252  23.383  44.050  0.00  0.00     0.210 C 
ENDBRANCH  25  29
BRANCH  28  31
ATOM     31  O2  non dame1      24.916  26.068  38.680  0.00  0.00    -0.355 OA
ATOM     32  C22 non dame1      23.974  25.200  38.072  0.00  0.00     0.210 C 
ENDBRANCH  28  31
ENDBRANCH  22  23
ENDBRANCH   1  22
TORSDOF 9
ENDMDL
MODEL 174
REMARK VINA RESULT:       0.0      7.397     10.163
REMARK NAME 26646894_Intermediate
REMARK  9 active torsions:
REMARK  status: ('A' for Active; 'I' for Inactive)
REMARK    1  A    between atoms: N1_4  and  C5_6 
REMARK    2  A    between atoms: C8_9  and  C9_10 
REMARK    3  A    between atoms: C9_10  and  N2_11 
REMARK    4  A    between atoms: N2_11  and  C10_12 
REMARK    5  A    between atoms: N2_11  and  C15_18 
REMARK    6  A    between atoms: C10_12  and  C11_13 
REMARK    7  A    between atoms: C15_18  and  C16_19 
REMARK    8  A    between atoms: C18_21  and  O3_27 
REMARK    9  A    between atoms: C21_24  and  O2_25 
ROOT
ATOM      1  N2  non dame1      21.660  23.877  39.053  0.00  0.00    -0.061 N 
ATOM      2  H11 non dame1      22.397  24.484  38.724  0.00  0.00     0.280 HD
ENDROOT
BRANCH   1   3
ATOM      3  C9  non dame1      21.671  22.643  38.289  0.00  0.00     0.273 C 
BRANCH   3   4
ATOM      4  C8  non dame1      22.489  22.825  37.074  0.00  0.00    -0.032 A 
ATOM      5  C7  non dame1      21.883  22.908  35.817  0.00  0.00     0.011 A 
ATOM      6  C6  non dame1      22.662  23.084  34.670  0.00  0.00     0.030 A 
ATOM      7  C5  non dame1      24.061  23.182  34.772  0.00  0.00     0.037 A 
ATOM      8  C25 non dame1      24.668  23.089  36.035  0.00  0.00     0.030 A 
ATOM      9  C24 non dame1      23.882  22.916  37.175  0.00  0.00     0.011 A 
BRANCH   7  10
ATOM     10  N1  non dame1      24.834  23.368  33.637  0.00  0.00    -0.318 N 
ATOM     11  C3  non dame1      25.144  24.605  32.942  0.00  0.00     0.224 C 
ATOM     12  C2  non dame1      25.720  24.156  31.607  0.00  0.00     0.105 C 
ATOM     13  O4  non dame1      24.949  25.705  33.411  0.00  0.00    -0.273 OA
ATOM     14  C1  non dame1      26.406  22.844  31.961  0.00  0.00     0.029 C 
ATOM     15  C4  non dame1      25.461  22.227  32.983  0.00  0.00     0.133 C 
ENDBRANCH   7  10
ENDBRANCH   3   4
ENDBRANCH   1   3
BRANCH   1  16
ATOM     16  C10 non dame1      21.869  23.577  40.458  0.00  0.00     0.267 C 
BRANCH  16  17
ATOM     17  C11 non dame1      23.328  23.751  40.797  0.00  0.00     0.147 C 
ATOM     18  C12 non dame1      23.807  25.015  40.266  0.00  0.00     0.036 C 
ATOM     19  C13 non dame1      23.507  25.975  41.389  0.00  0.00     0.029 C 
ATOM     20  C14 non dame1      23.794  25.130  42.620  0.00  0.00     0.168 C 
ATOM     21  O1  non dame1      23.500  23.765  42.257  0.00  0.00    -0.384 OA
ENDBRANCH  16  17
ENDBRANCH   1  16
BRANCH   1  22
ATOM     22  C15 non dame1      20.380  24.539  38.885  0.00  0.00     0.276 C 
BRANCH  22  23
ATOM     23  C16 non dame1      20.551  26.002  39.085  0.00  0.00     0.004 A 
ATOM     24  C17 non dame1      20.007  26.629  40.220  0.00  0.00     0.048 A 
ATOM     25  C18 non dame1      20.159  28.007  40.405  0.00  0.00     0.069 A 
ATOM     26  C19 non dame1      20.854  28.770  39.464  0.00  0.00     0.039 A 
ATOM     27  C20 non dame1      21.398  28.146  38.338  0.00  0.00     0.040 A 
ATOM     28  C21 non dame1      21.256  26.772  38.145  0.00  0.00     0.076 A 
BRANCH  25  29
ATOM     29  O3  non dame1      19.623  28.608  41.509  0.00  0.00    -0.356 OA
ATOM     30  C23 non dame1      20.176  28.029  42.679  0.00  0.00     0.210 C 
ENDBRANCH  25  29
BRANCH  28  31
ATOM     31  O2  non dame1      21.794  26.160  37.047  0.00  0.00    -0.355 OA
ATOM     32  C22 non dame1      23.140  26.578  36.888  0.00  0.00     0.210 C 
ENDBRANCH  28  31
ENDBRANCH  22  23
ENDBRANCH   1  22
TORSDOF 9
ENDMDL
MODEL 175
REMARK VINA RESULT:      -0.0      0.000      0.000
REMARK NAME 26730581_Intermediate
REMARK  5 active torsions:
REMARK  status: ('A' for Active; 'I' for Inactive)
REMARK    1  A    between atoms: C3_3  and  S1_8 
REMARK    2  A    between atoms: S1_8  and  N2_9 
REMARK    3  A    between atoms: N2_9  and  C6_10 
REMARK    4  A    between atoms: C11_15  and  O2_16 
REMARK    5  A    between atoms: O2_16  and  C12_17 
ROOT
ATOM      1  C6  non dame1      14.824  25.676  31.261  0.00  0.00     0.103 A 
ATOM      2  C7  non dame1      13.576  25.311  30.730  0.00  0.00     0.035 A 
ATOM      3  C8  non dame1      13.441  24.129  29.993  0.00  0.00     0.002 A 
ATOM      4  C9  non dame1      14.549  23.305  29.777  0.00  0.00     0.003 A 
ATOM      5  C10 non dame1      15.792  23.670  30.301  0.00  0.00     0.040 A 
ATOM      6  C11 non dame1      15.940  24.850  31.035  0.00  0.00     0.105 A 
ENDROOT
BRANCH   1   7
ATOM      7  N2  non dame1      14.962  26.894  32.036  0.00  0.00    -0.157 NA
BRANCH   7   8
ATOM      8  S1  non dame1      14.991  28.360  31.274  0.00  0.00     0.288 S 
ATOM      9  O3  non dame1      13.436  28.835  30.929  0.00  0.00    -0.198 OA
ATOM     10  O4  non dame1      15.706  29.484  32.266  0.00  0.00    -0.198 OA
BRANCH   8  11
ATOM     11  C3  non dame1      15.888  28.231  29.816  0.00  0.00     0.139 A 
ATOM     12  C2  non dame1      17.309  28.303  29.698  0.00  0.00     0.084 A 
ATOM     13  C1  non dame1      18.327  28.453  30.725  0.00  0.00     0.074 C 
ATOM     14  N1  non dame1      17.688  28.213  28.414  0.00  0.00    -0.132 NA
ATOM     15  O1  non dame1      16.532  28.047  27.684  0.00  0.00    -0.216 OA
ATOM     16  C4  non dame1      15.459  28.042  28.517  0.00  0.00     0.100 A 
ATOM     17  C5  non dame1      14.131  27.851  27.956  0.00  0.00     0.081 C 
ENDBRANCH   8  11
ENDBRANCH   7   8
ENDBRANCH   1   7
BRANCH   6  18
ATOM     18  O2  non dame1      17.154  25.212  31.540  0.00  0.00    -0.308 OA
BRANCH  18  19
ATOM     19  C12 non dame1      17.560  24.283  32.473  0.00  0.00     0.076 A 
ATOM     20  C13 non dame1      18.691  23.484  32.232  0.00  0.00     0.037 A 
ATOM     21  C14 non dame1      19.094  22.534  33.177  0.00  0.00     0.003 A 
ATOM     22  C15 non dame1      18.379  22.375  34.367  0.00  0.00     0.000 A 
ATOM     23  C16 non dame1      17.257  23.176  34.606  0.00  0.00     0.003 A 
ATOM     24  C17 non dame1      16.848  24.130  33.672  0.00  0.00     0.037 A 
ENDBRANCH  18  19
ENDBRANCH   6  18
TORSDOF 5
ENDMDL
MODEL 176
REMARK VINA RESULT:      -0.0      4.723      6.698
REMARK NAME 26730581_Intermediate
REMARK  5 active torsions:
REMARK  status: ('A' for Active; 'I' for Inactive)
REMARK    1  A    between atoms: C3_3  and  S1_8 
REMARK    2  A    between atoms: S1_8  and  N2_9 
REMARK    3  A    between atoms: N2_9  and  C6_10 
REMARK    4  A    between atoms: C11_15  and  O2_16 
REMARK    5  A    between atoms: O2_16  and  C12_17 
ROOT
ATOM      1  C6  non dame1      16.052  26.822  35.445  0.00  0.00     0.103 A 
ATOM      2  C7  non dame1      16.184  27.810  34.455  0.00  0.00     0.035 A 
ATOM      3  C8  non dame1      15.761  27.557  33.145  0.00  0.00     0.002 A 
ATOM      4  C9  non dame1      15.208  26.318  32.812  0.00  0.00     0.003 A 
ATOM      5  C10 non dame1      15.081  25.333  33.797  0.00  0.00     0.040 A 
ATOM      6  C11 non dame1      15.504  25.573  35.106  0.00  0.00     0.105 A 
ENDROOT
BRANCH   1   7
ATOM      7  N2  non dame1      16.478  27.089  36.806  0.00  0.00    -0.157 NA
BRANCH   7   8
ATOM      8  S1  non dame1      18.087  27.093  37.183  0.00  0.00     0.288 S 
ATOM      9  O3  non dame1      18.755  28.550  36.742  0.00  0.00    -0.198 OA
ATOM     10  O4  non dame1      18.272  26.872  38.819  0.00  0.00    -0.198 OA
BRANCH   8  11
ATOM     11  C3  non dame1      18.877  25.822  36.340  0.00  0.00     0.139 A 
ATOM     12  C2  non dame1      18.942  24.457  36.754  0.00  0.00     0.084 A 
ATOM     13  C1  non dame1      18.353  23.801  37.911  0.00  0.00     0.074 C 
ATOM     14  N1  non dame1      19.674  23.731  35.896  0.00  0.00    -0.132 NA
ATOM     15  O1  non dame1      20.066  24.597  34.899  0.00  0.00    -0.216 OA
ATOM     16  C4  non dame1      19.581  25.839  35.153  0.00  0.00     0.100 A 
ATOM     17  C5  non dame1      19.854  26.911  34.207  0.00  0.00     0.081 C 
ENDBRANCH   8  11
ENDBRANCH   7   8
ENDBRANCH   1   7
BRANCH   6  18
ATOM     18  O2  non dame1      15.388  24.610  36.065  0.00  0.00    -0.308 OA
BRANCH  18  19
ATOM     19  C12 non dame1      14.057  24.334  36.284  0.00  0.00     0.076 A 
ATOM     20  C13 non dame1      13.528  23.076  35.947  0.00  0.00     0.037 A 
ATOM     21  C14 non dame1      12.173  22.803  36.159  0.00  0.00     0.003 A 
ATOM     22  C15 non dame1      11.335  23.776  36.711  0.00  0.00     0.000 A 
ATOM     23  C16 non dame1      11.865  25.026  37.050  0.00  0.00     0.003 A 
ATOM     24  C17 non dame1      13.218  25.308  36.846  0.00  0.00     0.037 A 
ENDBRANCH  18  19
ENDBRANCH   6  18
TORSDOF 5
ENDMDL
MODEL 177
REMARK VINA RESULT:      -0.0      4.977      6.657
REMARK NAME 26730581_Intermediate
REMARK  5 active torsions:
REMARK  status: ('A' for Active; 'I' for Inactive)
REMARK    1  A    between atoms: C3_3  and  S1_8 
REMARK    2  A    between atoms: S1_8  and  N2_9 
REMARK    3  A    between atoms: N2_9  and  C6_10 
REMARK    4  A    between atoms: C11_15  and  O2_16 
REMARK    5  A    between atoms: O2_16  and  C12_17 
ROOT
ATOM      1  C6  non dame1      17.770  22.274  32.714  0.00  0.00     0.103 A 
ATOM      2  C7  non dame1      16.707  22.346  31.798  0.00  0.00     0.035 A 
ATOM      3  C8  non dame1      15.639  21.445  31.884  0.00  0.00     0.002 A 
ATOM      4  C9  non dame1      15.624  20.466  32.880  0.00  0.00     0.003 A 
ATOM      5  C10 non dame1      16.684  20.391  33.789  0.00  0.00     0.040 A 
ATOM      6  C11 non dame1      17.757  21.281  33.710  0.00  0.00     0.105 A 
ENDROOT
BRANCH   1   7
ATOM      7  N2  non dame1      18.870  23.216  32.634  0.00  0.00    -0.157 NA
BRANCH   7   8
ATOM      8  S1  non dame1      20.027  23.038  31.468  0.00  0.00     0.288 S 
ATOM      9  O3  non dame1      19.477  23.686  30.040  0.00  0.00    -0.198 OA
ATOM     10  O4  non dame1      21.411  23.826  31.937  0.00  0.00    -0.198 OA
BRANCH   8  11
ATOM     11  C3  non dame1      20.366  21.369  31.246  0.00  0.00     0.139 A 
ATOM     12  C2  non dame1      21.255  20.583  32.039  0.00  0.00     0.084 A 
ATOM     13  C1  non dame1      22.036  20.948  33.211  0.00  0.00     0.074 C 
ATOM     14  N1  non dame1      21.331  19.327  31.573  0.00  0.00    -0.132 NA
ATOM     15  O1  non dame1      20.472  19.266  30.497  0.00  0.00    -0.216 OA
ATOM     16  C4  non dame1      19.885  20.476  30.309  0.00  0.00     0.100 A 
ATOM     17  C5  non dame1      18.915  20.631  29.235  0.00  0.00     0.081 C 
ENDBRANCH   8  11
ENDBRANCH   7   8
ENDBRANCH   1   7
BRANCH   6  18
ATOM     18  O2  non dame1      18.796  21.204  34.591  0.00  0.00    -0.308 OA
BRANCH  18  19
ATOM     19  C12 non dame1      18.342  21.474  35.864  0.00  0.00     0.076 A 
ATOM     20  C13 non dame1      18.348  20.470  36.847  0.00  0.00     0.037 A 
ATOM     21  C14 non dame1      17.876  20.744  38.135  0.00  0.00     0.003 A 
ATOM     22  C15 non dame1      17.399  22.018  38.455  0.00  0.00     0.000 A 
ATOM     23  C16 non dame1      17.399  23.018  37.475  0.00  0.00     0.003 A 
ATOM     24  C17 non dame1      17.871  22.756  36.187  0.00  0.00     0.037 A 
ENDBRANCH  18  19
ENDBRANCH   6  18
TORSDOF 5
ENDMDL
MODEL 178
REMARK VINA RESULT:      -0.0      0.000      0.000
REMARK NAME 24372182_Intermediate
REMARK  3 active torsions:
REMARK  status: ('A' for Active; 'I' for Inactive)
REMARK    1  A    between atoms: C12_13  and  C15_17 
REMARK       I    between atoms: C15_17  and  N2_18 
REMARK    2  A    between atoms: N2_18  and  C16_19 
REMARK    3  A    between atoms: C16_19  and  C18_21 
ROOT
ATOM      1  C1  non dame1      17.355  22.618  31.848  0.00  0.00     0.071 C 
ATOM      2  C2  non dame1      18.388  23.676  31.956  0.00  0.00     0.043 C 
ATOM      3  C3  non dame1      19.315  23.446  33.095  0.00  0.00     0.007 A 
ATOM      4  C4  non dame1      18.764  23.148  34.351  0.00  0.00     0.038 A 
ATOM      5  C5  non dame1      19.597  22.867  35.435  0.00  0.00     0.035 A 
ATOM      6  C6  non dame1      20.980  22.874  35.267  0.00  0.00     0.025 A 
ATOM      7  C7  non dame1      21.531  23.174  34.019  0.00  0.00     0.021 A 
ATOM      8  C8  non dame1      20.706  23.468  32.926  0.00  0.00     0.018 A 
ATOM      9  S1  non dame1      21.479  23.883  31.372  0.00  0.00    -0.087 SA
ATOM     10  C9  non dame1      20.751  25.506  31.180  0.00  0.00     0.034 A 
ATOM     11  C10 non dame1      21.614  26.611  31.113  0.00  0.00     0.022 A 
ATOM     12  C11 non dame1      21.100  27.903  31.002  0.00  0.00     0.018 A 
ATOM     13  C12 non dame1      19.724  28.099  30.954  0.00  0.00     0.034 A 
ATOM     14  C13 non dame1      18.863  27.001  31.013  0.00  0.00     0.050 A 
ATOM     15  C14 non dame1      19.357  25.695  31.137  0.00  0.00     0.075 A 
ATOM     16  N1  non dame1      18.407  24.658  31.107  0.00  0.00    -0.252 NA
ATOM     17 Cl1  non dame1      18.905  22.503  37.007  0.00  0.00    -0.084 Cl
ENDROOT
BRANCH  13  18
ATOM     18  C15 non dame1      19.183  29.437  30.842  0.00  0.00     0.252 C 
ATOM     19  N2  non dame1      17.863  29.666  31.122  0.00  0.00    -0.349 N 
ATOM     20  H10 non dame1      17.309  28.869  31.402  0.00  0.00     0.163 HD
ATOM     21  O1  non dame1      19.904  30.361  30.498  0.00  0.00    -0.268 OA
BRANCH  19  22
ATOM     22  C16 non dame1      17.318  31.014  31.010  0.00  0.00     0.114 C 
ATOM     23  C17 non dame1      16.872  31.497  32.382  0.00  0.00     0.037 C 
BRANCH  22  24
ATOM     24  C18 non dame1      16.155  31.003  30.086  0.00  0.00    -0.036 A 
ATOM     25  C19 non dame1      15.486  32.199  29.775  0.00  0.00     0.009 A 
ATOM     26  C20 non dame1      14.382  32.186  28.913  0.00  0.00     0.001 A 
ATOM     27  C21 non dame1      13.940  30.985  28.354  0.00  0.00     0.000 A 
ATOM     28  C22 non dame1      14.612  29.796  28.659  0.00  0.00     0.001 A 
ATOM     29  C23 non dame1      15.714  29.798  29.515  0.00  0.00     0.009 A 
ENDBRANCH  22  24
ENDBRANCH  19  22
ENDBRANCH  13  18
TORSDOF 3
ENDMDL
MODEL 179
REMARK VINA RESULT:      -0.0      3.918      4.948
REMARK NAME 24372182_Intermediate
REMARK  3 active torsions:
REMARK  status: ('A' for Active; 'I' for Inactive)
REMARK    1  A    between atoms: C12_13  and  C15_17 
REMARK       I    between atoms: C15_17  and  N2_18 
REMARK    2  A    between atoms: N2_18  and  C16_19 
REMARK    3  A    between atoms: C16_19  and  C18_21 
ROOT
ATOM      1  C1  non dame1      14.679  25.100  36.080  0.00  0.00     0.071 C 
ATOM      2  C2  non dame1      14.806  24.566  34.703  0.00  0.00     0.043 C 
ATOM      3  C3  non dame1      15.704  23.383  34.638  0.00  0.00     0.007 A 
ATOM      4  C4  non dame1      16.956  23.462  35.267  0.00  0.00     0.038 A 
ATOM      5  C5  non dame1      17.806  22.356  35.281  0.00  0.00     0.035 A 
ATOM      6  C6  non dame1      17.407  21.167  34.675  0.00  0.00     0.025 A 
ATOM      7  C7  non dame1      16.163  21.086  34.045  0.00  0.00     0.021 A 
ATOM      8  C8  non dame1      15.305  22.192  34.015  0.00  0.00     0.018 A 
ATOM      9  S1  non dame1      13.749  22.031  33.156  0.00  0.00    -0.087 SA
ATOM     10  C9  non dame1      13.999  23.356  31.979  0.00  0.00     0.034 A 
ATOM     11  C10 non dame1      13.995  23.033  30.613  0.00  0.00     0.022 A 
ATOM     12  C11 non dame1      14.223  24.020  29.654  0.00  0.00     0.018 A 
ATOM     13  C12 non dame1      14.451  25.333  30.052  0.00  0.00     0.034 A 
ATOM     14  C13 non dame1      14.447  25.659  31.410  0.00  0.00     0.050 A 
ATOM     15  C14 non dame1      14.233  24.681  32.391  0.00  0.00     0.075 A 
ATOM     16  N1  non dame1      14.170  25.130  33.723  0.00  0.00    -0.252 NA
ATOM     17 Cl1  non dame1      19.376  22.460  36.062  0.00  0.00    -0.084 Cl
ENDROOT
BRANCH  13  18
ATOM     18  C15 non dame1      14.691  26.362  29.062  0.00  0.00     0.252 C 
ATOM     19  N2  non dame1      15.227  27.563  29.440  0.00  0.00    -0.349 N 
ATOM     20  H10 non dame1      15.436  27.681  30.422  0.00  0.00     0.163 HD
ATOM     21  O1  non dame1      14.415  26.157  27.889  0.00  0.00    -0.268 OA
BRANCH  19  22
ATOM     22  C16 non dame1      15.469  28.599  28.443  0.00  0.00     0.114 C 
ATOM     23  C17 non dame1      16.967  28.798  28.272  0.00  0.00     0.037 C 
BRANCH  22  24
ATOM     24  C18 non dame1      14.847  29.872  28.890  0.00  0.00    -0.036 A 
ATOM     25  C19 non dame1      14.975  31.034  28.112  0.00  0.00     0.009 A 
ATOM     26  C20 non dame1      14.398  32.236  28.539  0.00  0.00     0.001 A 
ATOM     27  C21 non dame1      13.690  32.288  29.741  0.00  0.00     0.000 A 
ATOM     28  C22 non dame1      13.557  31.128  30.513  0.00  0.00     0.001 A 
ATOM     29  C23 non dame1      14.126  29.925  30.094  0.00  0.00     0.009 A 
ENDBRANCH  22  24
ENDBRANCH  19  22
ENDBRANCH  13  18
TORSDOF 3
ENDMDL
MODEL 180
REMARK VINA RESULT:      -0.0      4.803      5.783
REMARK NAME 24372182_Intermediate
REMARK  3 active torsions:
REMARK  status: ('A' for Active; 'I' for Inactive)
REMARK    1  A    between atoms: C12_13  and  C15_17 
REMARK       I    between atoms: C15_17  and  N2_18 
REMARK    2  A    between atoms: N2_18  and  C16_19 
REMARK    3  A    between atoms: C16_19  and  C18_21 
ROOT
ATOM      1  C1  non dame1      22.964  31.116  28.456  0.00  0.00     0.071 C 
ATOM      2  C2  non dame1      22.399  30.586  29.719  0.00  0.00     0.043 C 
ATOM      3  C3  non dame1      23.190  29.447  30.257  0.00  0.00     0.007 A 
ATOM      4  C4  non dame1      23.536  28.406  29.383  0.00  0.00     0.038 A 
ATOM      5  C5  non dame1      24.328  27.348  29.830  0.00  0.00     0.035 A 
ATOM      6  C6  non dame1      24.781  27.329  31.147  0.00  0.00     0.025 A 
ATOM      7  C7  non dame1      24.435  28.362  32.021  0.00  0.00     0.021 A 
ATOM      8  C8  non dame1      23.632  29.424  31.587  0.00  0.00     0.018 A 
ATOM      9  S1  non dame1      23.194  30.688  32.769  0.00  0.00    -0.087 SA
ATOM     10  C9  non dame1      21.417  30.509  32.646  0.00  0.00     0.034 A 
ATOM     11  C10 non dame1      20.710  30.154  33.806  0.00  0.00     0.022 A 
ATOM     12  C11 non dame1      19.329  29.962  33.760  0.00  0.00     0.018 A 
ATOM     13  C12 non dame1      18.647  30.130  32.560  0.00  0.00     0.034 A 
ATOM     14  C13 non dame1      19.347  30.491  31.406  0.00  0.00     0.050 A 
ATOM     15  C14 non dame1      20.736  30.675  31.426  0.00  0.00     0.075 A 
ATOM     16  N1  non dame1      21.329  31.116  30.230  0.00  0.00    -0.252 NA
ATOM     17 Cl1  non dame1      24.754  26.042  28.735  0.00  0.00    -0.084 Cl
ENDROOT
BRANCH  13  18
ATOM     18  C15 non dame1      17.214  29.930  32.503  0.00  0.00     0.252 C 
ATOM     19  N2  non dame1      16.597  29.738  31.297  0.00  0.00    -0.349 N 
ATOM     20  H10 non dame1      17.186  29.745  30.476  0.00  0.00     0.163 HD
ATOM     21  O1  non dame1      16.556  29.933  33.534  0.00  0.00    -0.268 OA
BRANCH  19  22
ATOM     22  C16 non dame1      15.154  29.537  31.241  0.00  0.00     0.114 C 
ATOM     23  C17 non dame1      14.857  28.109  30.812  0.00  0.00     0.037 C 
BRANCH  22  24
ATOM     24  C18 non dame1      14.559  30.483  30.262  0.00  0.00    -0.036 A 
ATOM     25  C19 non dame1      13.180  30.455  29.997  0.00  0.00     0.009 A 
ATOM     26  C20 non dame1      12.622  31.339  29.065  0.00  0.00     0.001 A 
ATOM     27  C21 non dame1      13.433  32.256  28.394  0.00  0.00     0.000 A 
ATOM     28  C22 non dame1      14.806  32.288  28.663  0.00  0.00     0.001 A 
ATOM     29  C23 non dame1      15.371  31.414  29.592  0.00  0.00     0.009 A 
ENDBRANCH  22  24
ENDBRANCH  19  22
ENDBRANCH  13  18
TORSDOF 3
ENDMDL
MODEL 181
REMARK VINA RESULT:      -0.0      0.000      0.000
REMARK NAME 26529515_Intermediate
REMARK  1 active torsions:
REMARK  status: ('A' for Active; 'I' for Inactive)
REMARK    1  A    between atoms: C4_4  and  C7_7 
ROOT
ATOM      1  C7  non dame1      15.575  31.260  31.502  0.00  0.00     0.091 A 
ATOM      2  C8  non dame1      16.498  32.248  31.902  0.00  0.00     0.086 A 
ATOM      3  C9  non dame1      16.991  31.783  33.109  0.00  0.00     0.153 A 
ATOM      4  N1  non dame1      17.913  32.288  33.989  0.00  0.00    -0.241 NA
ATOM      5  C10 non dame1      18.146  31.577  35.051  0.00  0.00     0.121 A 
ATOM      6  C11 non dame1      17.510  30.277  35.395  0.00  0.00     0.052 A 
ATOM      7  C12 non dame1      16.617  29.831  34.501  0.00  0.00     0.079 A 
ATOM      8  C13 non dame1      15.984  28.645  34.736  0.00  0.00     0.033 A 
ATOM      9  C14 non dame1      15.076  28.127  33.890  0.00  0.00     0.021 A 
ATOM     10  C15 non dame1      14.538  26.892  34.440  0.00  0.00     0.008 A 
ATOM     11  C16 non dame1      15.156  26.555  35.636  0.00  0.00     0.050 A 
ATOM     12  S1  non dame1      16.294  27.737  36.111  0.00  0.00    -0.100 SA
ATOM     13  N2  non dame1      16.342  30.566  33.351  0.00  0.00    -0.214 N 
ATOM     14  N3  non dame1      15.473  30.248  32.364  0.00  0.00    -0.165 NA
ENDROOT
BRANCH   1  15
ATOM     15  C4  non dame1      14.812  31.245  30.371  0.00  0.00    -0.006 A 
ATOM     16  C3  non dame1      13.925  30.187  30.121  0.00  0.00     0.014 A 
ATOM     17  C2  non dame1      13.142  30.175  28.962  0.00  0.00     0.001 A 
ATOM     18  C1  non dame1      13.243  31.227  28.049  0.00  0.00     0.000 A 
ATOM     19  C6  non dame1      14.126  32.284  28.275  0.00  0.00     0.001 A 
ATOM     20  C5  non dame1      14.901  32.288  29.436  0.00  0.00     0.014 A 
ENDBRANCH   1  15
TORSDOF 1
ENDMDL
MODEL 182
REMARK VINA RESULT:      -0.0      2.899      6.326
REMARK NAME 26529515_Intermediate
REMARK  1 active torsions:
REMARK  status: ('A' for Active; 'I' for Inactive)
REMARK    1  A    between atoms: C4_4  and  C7_7 
ROOT
ATOM      1  C7  non dame1      15.967  29.342  33.401  0.00  0.00     0.091 A 
ATOM      2  C8  non dame1      14.811  29.355  34.209  0.00  0.00     0.086 A 
ATOM      3  C9  non dame1      13.876  30.040  33.453  0.00  0.00     0.153 A 
ATOM      4  N1  non dame1      12.568  30.382  33.683  0.00  0.00    -0.241 NA
ATOM      5  C10 non dame1      11.969  31.040  32.738  0.00  0.00     0.121 A 
ATOM      6  C11 non dame1      12.567  31.454  31.440  0.00  0.00     0.052 A 
ATOM      7  C12 non dame1      13.846  31.095  31.268  0.00  0.00     0.079 A 
ATOM      8  C13 non dame1      14.475  31.433  30.104  0.00  0.00     0.033 A 
ATOM      9  C14 non dame1      15.757  31.112  29.852  0.00  0.00     0.021 A 
ATOM     10  C15 non dame1      16.159  31.657  28.565  0.00  0.00     0.008 A 
ATOM     11  C16 non dame1      15.100  32.288  27.927  0.00  0.00     0.050 A 
ATOM     12  S1  non dame1      13.690  32.285  28.892  0.00  0.00    -0.100 SA
ATOM     13  N2  non dame1      14.520  30.388  32.259  0.00  0.00    -0.214 N 
ATOM     14  N3  non dame1      15.804  29.959  32.230  0.00  0.00    -0.165 NA
ENDROOT
BRANCH   1  15
ATOM     15  C4  non dame1      17.177  28.784  33.693  0.00  0.00    -0.006 A 
ATOM     16  C3  non dame1      17.384  28.125  34.914  0.00  0.00     0.014 A 
ATOM     17  C2  non dame1      18.624  27.552  35.211  0.00  0.00     0.001 A 
ATOM     18  C1  non dame1      19.663  27.632  34.281  0.00  0.00     0.000 A 
ATOM     19  C6  non dame1      19.480  28.291  33.064  0.00  0.00     0.001 A 
ATOM     20  C5  non dame1      18.238  28.858  32.777  0.00  0.00     0.014 A 
ENDBRANCH   1  15
TORSDOF 1
ENDMDL
MODEL 183
REMARK VINA RESULT:      -0.0      2.037      3.639
REMARK NAME 26529515_Intermediate
REMARK  1 active torsions:
REMARK  status: ('A' for Active; 'I' for Inactive)
REMARK    1  A    between atoms: C4_4  and  C7_7 
ROOT
ATOM      1  C7  non dame1      14.827  30.078  32.665  0.00  0.00     0.091 A 
ATOM      2  C8  non dame1      14.056  29.301  33.554  0.00  0.00     0.086 A 
ATOM      3  C9  non dame1      14.978  28.806  34.460  0.00  0.00     0.153 A 
ATOM      4  N1  non dame1      14.855  27.992  35.556  0.00  0.00    -0.241 NA
ATOM      5  C10 non dame1      15.951  27.720  36.198  0.00  0.00     0.121 A 
ATOM      6  C11 non dame1      17.314  28.206  35.855  0.00  0.00     0.052 A 
ATOM      7  C12 non dame1      17.377  28.996  34.775  0.00  0.00     0.079 A 
ATOM      8  C13 non dame1      18.589  29.489  34.387  0.00  0.00     0.033 A 
ATOM      9  C14 non dame1      18.739  30.288  33.316  0.00  0.00     0.021 A 
ATOM     10  C15 non dame1      20.147  30.598  33.123  0.00  0.00     0.008 A 
ATOM     11  C16 non dame1      20.931  30.050  34.130  0.00  0.00     0.050 A 
ATOM     12  S1  non dame1      19.996  29.128  35.223  0.00  0.00    -0.100 SA
ATOM     13  N2  non dame1      16.223  29.311  34.063  0.00  0.00    -0.214 N 
ATOM     14  N3  non dame1      16.127  30.090  32.960  0.00  0.00    -0.165 NA
ENDROOT
BRANCH   1  15
ATOM     15  C4  non dame1      14.387  30.784  31.583  0.00  0.00    -0.006 A 
ATOM     16  C3  non dame1      15.276  31.568  30.833  0.00  0.00     0.014 A 
ATOM     17  C2  non dame1      14.824  32.288  29.722  0.00  0.00     0.001 A 
ATOM     18  C1  non dame1      13.478  32.223  29.357  0.00  0.00     0.000 A 
ATOM     19  C6  non dame1      12.576  31.455  30.096  0.00  0.00     0.001 A 
ATOM     20  C5  non dame1      13.038  30.738  31.201  0.00  0.00     0.014 A 
ENDBRANCH   1  15
TORSDOF 1
ENDMDL
MODEL 184
REMARK VINA RESULT:      -0.0      0.000      0.000
REMARK NAME 49718586_Intermediate
REMARK  4 active torsions:
REMARK  status: ('A' for Active; 'I' for Inactive)
REMARK    1  A    between atoms: C5_5  and  N1_9 
REMARK    2  A    between atoms: C13_14  and  N3_18 
REMARK       I    between atoms: N3_18  and  C16_19 
REMARK    3  A    between atoms: C16_19  and  C17_20 
REMARK    4  A    between atoms: C21_25  and  O1_26 
ROOT
ATOM      1  N1  non dame1      13.701  28.068  36.276  0.00  0.00    -0.238 N 
ATOM      2  C9  non dame1      14.818  27.672  35.600  0.00  0.00     0.046 C 
ATOM      3  C10 non dame1      16.079  27.024  36.075  0.00  0.00     0.060 C 
ATOM      4  C11 non dame1      17.262  27.273  35.085  0.00  0.00     0.008 C 
ATOM      5  C12 non dame1      16.806  27.101  33.641  0.00  0.00     0.030 C 
ATOM      6  C13 non dame1      15.435  27.537  33.210  0.00  0.00     0.121 C 
ATOM      7  C14 non dame1      14.497  27.832  34.265  0.00  0.00     0.008 C 
ATOM      8  C15 non dame1      13.157  28.245  34.244  0.00  0.00     0.150 C 
ATOM      9  N2  non dame1      12.658  28.323  35.480  0.00  0.00    -0.179 NA
ENDROOT
BRANCH   6  10
ATOM     10  N3  non dame1      15.586  28.740  32.401  0.00  0.00    -0.348 N 
ATOM     11  C16 non dame1      15.151  28.751  31.103  0.00  0.00     0.256 C 
ATOM     12  O2  non dame1      14.637  27.750  30.623  0.00  0.00    -0.267 OA
ATOM     13  H18 non dame1      16.004  29.591  32.750  0.00  0.00     0.163 HD
BRANCH  11  14
ATOM     14  C17 non dame1      15.301  29.952  30.293  0.00  0.00     0.084 A 
ATOM     15  C18 non dame1      16.164  29.979  29.202  0.00  0.00     0.023 A 
ATOM     16  C19 non dame1      16.286  31.168  28.475  0.00  0.00     0.020 A 
ATOM     17  C20 non dame1      15.529  32.281  28.840  0.00  0.00     0.119 A 
ATOM     18  N4  non dame1      14.685  32.252  29.882  0.00  0.00    -0.236 NA
ATOM     19  C21 non dame1      14.586  31.105  30.586  0.00  0.00     0.179 A 
BRANCH  19  20
ATOM     20  O1  non dame1      13.738  31.051  31.657  0.00  0.00    -0.339 OA
ATOM     21  C22 non dame1      14.067  32.086  32.571  0.00  0.00     0.211 C 
ENDBRANCH  19  20
ENDBRANCH  11  14
ENDBRANCH   6  10
BRANCH   1  22
ATOM     22  C5  non dame1      13.652  28.196  37.711  0.00  0.00     0.059 A 
ATOM     23  C4  non dame1      13.123  27.169  38.497  0.00  0.00     0.032 A 
ATOM     24  C3  non dame1      13.080  27.299  39.890  0.00  0.00     0.009 A 
ATOM     25  C2  non dame1      13.572  28.460  40.490  0.00  0.00    -0.056 A 
ATOM     26  C1  non dame1      13.535  28.584  41.960  0.00  0.00     0.049 C 
ATOM     27  C7  non dame1      14.095  29.496  39.714  0.00  0.00    -0.054 A 
ATOM     28  C6  non dame1      14.135  29.356  38.326  0.00  0.00     0.039 A 
ATOM     29  C8  non dame1      14.598  30.723  40.364  0.00  0.00     0.049 C 
ENDBRANCH   1  22
TORSDOF 4
ENDMDL
MODEL 185
REMARK VINA RESULT:      -0.0      3.701      7.915
REMARK NAME 49718586_Intermediate
REMARK  4 active torsions:
REMARK  status: ('A' for Active; 'I' for Inactive)
REMARK    1  A    between atoms: C5_5  and  N1_9 
REMARK    2  A    between atoms: C13_14  and  N3_18 
REMARK       I    between atoms: N3_18  and  C16_19 
REMARK    3  A    between atoms: C16_19  and  C17_20 
REMARK    4  A    between atoms: C21_25  and  O1_26 
ROOT
ATOM      1  N1  non dame1      14.372  29.250  32.448  0.00  0.00    -0.238 N 
ATOM      2  C9  non dame1      14.139  29.845  33.653  0.00  0.00     0.046 C 
ATOM      3  C10 non dame1      13.039  30.750  34.109  0.00  0.00     0.060 C 
ATOM      4  C11 non dame1      13.474  31.612  35.337  0.00  0.00     0.008 C 
ATOM      5  C12 non dame1      14.242  30.767  36.347  0.00  0.00     0.030 C 
ATOM      6  C13 non dame1      15.178  29.685  35.891  0.00  0.00     0.121 C 
ATOM      7  C14 non dame1      15.079  29.295  34.506  0.00  0.00     0.008 C 
ATOM      8  C15 non dame1      15.763  28.336  33.747  0.00  0.00     0.150 C 
ATOM      9  N2  non dame1      15.279  28.269  32.504  0.00  0.00    -0.179 NA
ENDROOT
BRANCH   6  10
ATOM     10  N3  non dame1      16.540  30.148  36.124  0.00  0.00    -0.348 N 
ATOM     11  C16 non dame1      17.369  29.443  36.954  0.00  0.00     0.256 C 
ATOM     12  O2  non dame1      16.966  28.425  37.500  0.00  0.00    -0.267 OA
ATOM     13  H18 non dame1      16.920  30.982  35.699  0.00  0.00     0.163 HD
BRANCH  11  14
ATOM     14  C17 non dame1      18.731  29.903  37.189  0.00  0.00     0.084 A 
ATOM     15  C18 non dame1      19.127  30.366  38.441  0.00  0.00     0.023 A 
ATOM     16  C19 non dame1      20.440  30.819  38.602  0.00  0.00     0.020 A 
ATOM     17  C20 non dame1      21.323  30.775  37.523  0.00  0.00     0.119 A 
ATOM     18  N4  non dame1      20.948  30.315  36.320  0.00  0.00    -0.236 NA
ATOM     19  C21 non dame1      19.674  29.894  36.171  0.00  0.00     0.179 A 
BRANCH  19  20
ATOM     20  O1  non dame1      19.265  29.427  34.953  0.00  0.00    -0.339 OA
ATOM     21  C22 non dame1      19.504  30.417  33.965  0.00  0.00     0.211 C 
ENDBRANCH  19  20
ENDBRANCH  11  14
ENDBRANCH   6  10
BRANCH   1  22
ATOM     22  C5  non dame1      13.704  29.641  31.233  0.00  0.00     0.059 A 
ATOM     23  C4  non dame1      12.591  28.931  30.775  0.00  0.00     0.032 A 
ATOM     24  C3  non dame1      11.946  29.317  29.595  0.00  0.00     0.009 A 
ATOM     25  C2  non dame1      12.417  30.420  28.879  0.00  0.00    -0.056 A 
ATOM     26  C1  non dame1      11.722  30.829  27.643  0.00  0.00     0.049 C 
ATOM     27  C7  non dame1      13.532  31.132  29.323  0.00  0.00    -0.054 A 
ATOM     28  C6  non dame1      14.168  30.740  30.502  0.00  0.00     0.039 A 
ATOM     29  C8  non dame1      14.027  32.287  28.547  0.00  0.00     0.049 C 
ENDBRANCH   1  22
TORSDOF 4
ENDMDL
MODEL 186
REMARK VINA RESULT:      -0.0      4.575      8.791
REMARK NAME 49718586_Intermediate
REMARK  4 active torsions:
REMARK  status: ('A' for Active; 'I' for Inactive)
REMARK    1  A    between atoms: C5_5  and  N1_9 
REMARK    2  A    between atoms: C13_14  and  N3_18 
REMARK       I    between atoms: N3_18  and  C16_19 
REMARK    3  A    between atoms: C16_19  and  C17_20 
REMARK    4  A    between atoms: C21_25  and  O1_26 
ROOT
ATOM      1  N1  non dame1      17.243  30.125  33.658  0.00  0.00    -0.238 N 
ATOM      2  C9  non dame1      18.557  30.425  33.868  0.00  0.00     0.046 C 
ATOM      3  C10 non dame1      19.425  31.501  33.297  0.00  0.00     0.060 C 
ATOM      4  C11 non dame1      20.938  31.122  33.377  0.00  0.00     0.008 C 
ATOM      5  C12 non dame1      21.271  30.503  34.729  0.00  0.00     0.030 C 
ATOM      6  C13 non dame1      20.292  29.601  35.425  0.00  0.00     0.121 C 
ATOM      7  C14 non dame1      18.945  29.602  34.910  0.00  0.00     0.008 C 
ATOM      8  C15 non dame1      17.787  28.916  35.302  0.00  0.00     0.150 C 
ATOM      9  N2  non dame1      16.734  29.291  34.572  0.00  0.00    -0.179 NA
ENDROOT
BRANCH   6  10
ATOM     10  N3  non dame1      20.800  28.238  35.334  0.00  0.00    -0.348 N 
ATOM     11  C16 non dame1      21.074  27.534  36.476  0.00  0.00     0.256 C 
ATOM     12  O2  non dame1      20.893  28.049  37.570  0.00  0.00    -0.267 OA
ATOM     13  H18 non dame1      20.968  27.769  34.456  0.00  0.00     0.163 HD
BRANCH  11  14
ATOM     14  C17 non dame1      21.582  26.171  36.388  0.00  0.00     0.084 A 
ATOM     15  C18 non dame1      22.876  25.860  36.797  0.00  0.00     0.023 A 
ATOM     16  C19 non dame1      23.318  24.539  36.667  0.00  0.00     0.020 A 
ATOM     17  C20 non dame1      22.455  23.569  36.158  0.00  0.00     0.119 A 
ATOM     18  N4  non dame1      21.203  23.865  35.778  0.00  0.00    -0.236 NA
ATOM     19  C21 non dame1      20.791  25.144  35.894  0.00  0.00     0.179 A 
BRANCH  19  20
ATOM     20  O1  non dame1      19.522  25.473  35.506  0.00  0.00    -0.339 OA
ATOM     21  C22 non dame1      19.325  25.082  34.156  0.00  0.00     0.211 C 
ENDBRANCH  19  20
ENDBRANCH  11  14
ENDBRANCH   6  10
BRANCH   1  22
ATOM     22  C5  non dame1      16.478  30.656  32.558  0.00  0.00     0.059 A 
ATOM     23  C4  non dame1      15.650  31.766  32.741  0.00  0.00     0.032 A 
ATOM     24  C3  non dame1      14.912  32.278  31.668  0.00  0.00     0.009 A 
ATOM     25  C2  non dame1      15.011  31.675  30.412  0.00  0.00    -0.056 A 
ATOM     26  C1  non dame1      14.239  32.229  29.282  0.00  0.00     0.049 C 
ATOM     27  C7  non dame1      15.828  30.560  30.220  0.00  0.00    -0.054 A 
ATOM     28  C6  non dame1      16.562  30.058  31.296  0.00  0.00     0.039 A 
ATOM     29  C8  non dame1      15.909  29.926  28.889  0.00  0.00     0.049 C 
ENDBRANCH   1  22
TORSDOF 4
ENDMDL
