@<TRIPOS>MOLECULE
14740705_Intermediate
 23 26 0 0 0
SMALL
GASTEIGER

@<TRIPOS>ATOM
      1  C1        19.2230   30.8990   38.7820 C.3     0  non0        0.0266
      2  C2        18.4800   31.2020   37.4980 C.3     0  non0        0.0294
      3  C3        18.2250   29.9410   36.7170 C.ar    0  non0       -0.0084
      4  C4        17.1820   29.9630   35.7710 C.ar    0  non0       -0.0030
      5  C5        16.9010   28.8430   34.9980 C.ar    0  non0       -0.0002
      6  C6        17.6680   27.6980   35.1520 C.ar    0  non0        0.0013
      7  C7        18.7160   27.6720   36.0810 C.ar    0  non0        0.0146
      8  C8        19.0160   28.7820   36.8870 C.ar    0  non0        0.0498
      9  N1        20.1150   28.7790   37.8270 N.am    0  non0       -0.2587
     10  C9        20.4460   30.0610   38.4630 C.3     0  non0        0.0985
     11  C10       20.8060   27.6420   38.1040 C.2     0  non0        0.2338
     12  O1        20.5010   26.5930   37.5560 O.2     0  non0       -0.2742
     13  C11       21.9350   27.6730   39.0790 C.3     0  non0        0.1119
     14  C12       21.5520   26.9270   40.3060 C.ar    0  non0       -0.0131
     15  C13       20.6100   27.4710   41.1990 C.ar    0  non0       -0.0038
     16  C14       20.2290   26.7630   42.3360 C.ar    0  non0       -0.0003
     17  C15       20.8070   25.5180   42.6070 C.ar    0  non0       -0.0000
     18  C16       21.7630   24.9610   41.7430 C.ar    0  non0       -0.0003
     19  C17       22.3550   23.7140   42.0040 C.ar    0  non0       -0.0000
     20  C21       22.1340   25.6690   40.5790 C.ar    0  non0       -0.0035
     21  C18       23.2980   23.1750   41.1290 C.ar    0  non0       -0.0000
     22  C19       23.6590   23.8720   39.9780 C.ar    0  non0       -0.0000
     23  C20       23.0810   25.1110   39.7040 C.ar    0  non0       -0.0003
@<TRIPOS>BOND
     1     5     6   ar
     2     5     4   ar
     3     6     7   ar
     4     4     3   ar
     5     7     8   ar
     6     3     8   ar
     7     3     2    1
     8     8     9    1
     9     2     1    1
    10    12    11    2
    11     9    11   am
    12     9    10    1
    13    11    13    1
    14    10     1    1
    15    13    14    1
    16    23    22   ar
    17    23    20   ar
    18    22    21   ar
    19    14    20   ar
    20    14    15   ar
    21    20    18   ar
    22    21    19   ar
    23    15    16   ar
    24    18    19   ar
    25    18    17   ar
    26    16    17   ar
@<TRIPOS>MOLECULE
14740705_Intermediate
 23 26 0 0 0
SMALL
GASTEIGER

@<TRIPOS>ATOM
      1  C1        25.3400   28.4660   32.7620 C.3     0  non0        0.0266
      2  C2        26.5240   29.1940   33.3630 C.3     0  non0        0.0294
      3  C3        26.4270   29.2210   34.8640 C.ar    0  non0       -0.0084
      4  C4        27.6170   29.4300   35.5880 C.ar    0  non0       -0.0030
      5  C5        27.6050   29.4880   36.9770 C.ar    0  non0       -0.0002
      6  C6        26.4010   29.3540   37.6530 C.ar    0  non0        0.0013
      7  C7        25.2110   29.1600   36.9400 C.ar    0  non0        0.0146
      8  C8        25.1930   29.0820   35.5390 C.ar    0  non0        0.0498
      9  N1        23.9660   28.9150   34.7910 N.am    0  non0       -0.2587
     10  C9        24.0590   29.0460   33.3310 C.3     0  non0        0.0985
     11  C10       22.7890   28.6480   35.4130 C.2     0  non0        0.2338
     12  O1        22.7510   28.5440   36.6310 O.2     0  non0       -0.2742
     13  C11       21.5420   28.4800   34.6120 C.3     0  non0        0.1119
     14  C12       21.1050   27.0610   34.6630 C.ar    0  non0       -0.0131
     15  C13       21.8280   26.0730   33.9660 C.ar    0  non0       -0.0038
     16  C14       21.4370   24.7380   34.0330 C.ar    0  non0       -0.0003
     17  C15       20.3060   24.3800   34.7740 C.ar    0  non0       -0.0000
     18  C16       19.5570   25.3470   35.4630 C.ar    0  non0       -0.0003
     19  C17       18.4150   25.0020   36.2070 C.ar    0  non0       -0.0000
     20  C21       19.9640   26.6980   35.4120 C.ar    0  non0       -0.0035
     21  C18       17.6890   25.9780   36.8890 C.ar    0  non0       -0.0000
     22  C19       18.0940   27.3100   36.8430 C.ar    0  non0       -0.0000
     23  C20       19.2250   27.6680   36.1100 C.ar    0  non0       -0.0003
@<TRIPOS>BOND
     1     1    10    1
     2     1     2    1
     3    10     9    1
     4     2     3    1
     5    15    16   ar
     6    15    14   ar
     7    16    17   ar
     8    13    14    1
     9    13    11    1
    10    14    20   ar
    11    17    18   ar
    12     9    11   am
    13     9     8    1
    14     3     8   ar
    15     3     4   ar
    16    20    18   ar
    17    20    23   ar
    18    11    12    2
    19    18    19   ar
    20     8     7   ar
    21     4     5   ar
    22    23    22   ar
    23    19    21   ar
    24    22    21   ar
    25     7     6   ar
    26     5     6   ar
@<TRIPOS>MOLECULE
14740705_Intermediate
 23 26 0 0 0
SMALL
GASTEIGER

@<TRIPOS>ATOM
      1  C1        22.4510   30.1340   36.5040 C.3     0  non0        0.0266
      2  C2        21.4680   31.2610   36.7420 C.3     0  non0        0.0294
      3  C3        20.0870   30.7210   36.9930 C.ar    0  non0       -0.0084
      4  C4        19.1760   31.5550   37.6700 C.ar    0  non0       -0.0030
      5  C5        17.8760   31.1330   37.9200 C.ar    0  non0       -0.0002
      6  C6        17.4700   29.8810   37.4840 C.ar    0  non0        0.0013
      7  C7        18.3650   29.0500   36.7980 C.ar    0  non0        0.0146
      8  C8        19.6890   29.4420   36.5420 C.ar    0  non0        0.0498
      9  N1        20.6120   28.6060   35.8070 N.am    0  non0       -0.2587
     10  C9        21.8990   29.2100   35.4360 C.3     0  non0        0.0985
     11  C10       20.3000   27.3260   35.4780 C.2     0  non0        0.2338
     12  O1        19.2190   26.8570   35.8050 O.2     0  non0       -0.2742
     13  C11       21.2760   26.4900   34.7190 C.3     0  non0        0.1119
     14  C12       21.8010   25.4160   35.6020 C.ar    0  non0       -0.0131
     15  C13       22.6980   25.7310   36.6410 C.ar    0  non0       -0.0038
     16  C14       23.1730   24.7310   37.4860 C.ar    0  non0       -0.0003
     17  C15       22.7790   23.4040   37.2840 C.ar    0  non0       -0.0000
     18  C16       21.9010   23.0600   36.2450 C.ar    0  non0       -0.0003
     19  C17       21.5010   21.7310   36.0270 C.ar    0  non0       -0.0000
     20  C21       21.4030   24.0760   35.4000 C.ar    0  non0       -0.0035
     21  C18       20.6220   21.4110   34.9920 C.ar    0  non0       -0.0000
     22  C19       20.1280   22.4150   34.1620 C.ar    0  non0       -0.0000
     23  C20       20.5150   23.7400   34.3650 C.ar    0  non0       -0.0003
@<TRIPOS>BOND
     1    22    23   ar
     2    22    21   ar
     3    23    20   ar
     4    13    11    1
     5    13    14    1
     6    21    19   ar
     7    20    14   ar
     8    20    18   ar
     9    10     9    1
    10    10     1    1
    11    11    12    2
    12    11     9   am
    13    14    15   ar
    14     9     8    1
    15    19    18   ar
    16    18    17   ar
    17     1     2    1
    18     8     7   ar
    19     8     3   ar
    20    15    16   ar
    21     2     3    1
    22     7     6   ar
    23     3     4   ar
    24    17    16   ar
    25     6     5   ar
    26     4     5   ar
@<TRIPOS>MOLECULE
24784936_Intermediate
 31 33 0 0 0
SMALL
GASTEIGER

@<TRIPOS>ATOM
      1  C10       13.4820   23.9870   30.5010 C.ar    0  non0        0.1529
      2  N2        14.2370   23.8450   29.4310 N.ar    0  non0       -0.1323
      3  N3        15.2040   22.8970   29.7220 N.ar    0  non0       -0.1224
      4  C11       15.0050   22.4890   30.9590 C.ar    0  non0        0.1934
      5  N4        13.9360   23.1490   31.4630 N.ar    0  non0       -0.2914
      6  C12       13.3570   23.0130   32.7750 C.3     0  non0        0.1337
      7  C1        12.3330   24.8320   30.7850 C.3     0  non0        0.1510
      8  C2        12.8010   26.1860   31.2010 C.2     0  non0        0.2339
      9  N1        14.1400   26.4400   31.3220 N.am    0  non0       -0.2812
     10  H3        14.8000   25.7000   31.1250 H       0  non0        0.1550
     11  O2        11.9880   27.0670   31.4340 O.2     0  non0       -0.2743
     12  C3        14.5780   27.7060   31.7100 C.ar    0  non0        0.0848
     13  C4        14.6920   28.0310   33.0730 C.ar    0  non0        0.0178
     14  C5        15.1200   29.3040   33.4610 C.ar    0  non0        0.0015
     15  C6        15.4400   30.2640   32.4960 C.ar    0  non0        0.0032
     16  C7        15.3320   29.9390   31.1390 C.ar    0  non0        0.0382
     17  C8        14.9090   28.6680   30.7410 C.ar    0  non0        0.1520
     18  O1        14.8110   28.3500   29.4170 O.3     0  non0       -0.4702
     19  C9        13.7600   29.0970   28.8270 C.3     0  non0        0.2525
     20  S1        15.8610   21.2970   31.9920 S.3     0  non0       -0.0673
     21  C13       17.3760   22.2960   32.1640 C.3     0  non0        0.1340
     22  C14       17.1150   23.4410   33.0830 C.2     0  non0        0.1843
     23  O4        16.5810   23.2460   34.1650 O.2     0  non0       -0.2904
     24  C15       17.4950   24.7920   32.6910 C.ar    0  non0        0.0358
     25  C16       17.5590   25.1470   31.3330 C.ar    0  non0        0.0060
     26  C17       17.9350   26.4410   30.9580 C.ar    0  non0        0.0370
     27  C18       18.2470   27.3930   31.9330 C.ar    0  non0        0.1387
     28  C19       18.1770   27.0410   33.2860 C.ar    0  non0        0.0370
     29  C20       17.8000   25.7530   33.6690 C.ar    0  non0        0.0060
     30  O3        18.6180   28.6550   31.5740 O.3     0  non0       -0.4714
     31  C21       18.7270   28.7350   30.1630 C.3     0  non0        0.2525
@<TRIPOS>BOND
     1    19    18    1
     2    18    17    1
     3     2     3   ar
     4     2     1   ar
     5     3     4   ar
     6    31    30    1
     7     1     7    1
     8     1     5   ar
     9    17    16   ar
    10    17    12   ar
    11     7     8    1
    12    26    25   ar
    13    26    27   ar
    14     4     5   ar
    15     4    20    1
    16    10     9    1
    17    16    15   ar
    18     8     9   am
    19     8    11    2
    20     9    12    1
    21    25    24   ar
    22     5     6    1
    23    30    27    1
    24    12    13   ar
    25    27    28   ar
    26    20    21    1
    27    21    22    1
    28    15    14   ar
    29    24    22    1
    30    24    29   ar
    31    13    14   ar
    32    22    23    2
    33    28    29   ar
@<TRIPOS>MOLECULE
24784936_Intermediate
 31 33 0 0 0
SMALL
GASTEIGER

@<TRIPOS>ATOM
      1  C10       23.1750   27.5750   37.2650 C.ar    0  non0        0.1529
      2  N2        23.5100   26.4590   36.6520 N.ar    0  non0       -0.1323
      3  N3        23.7640   26.7670   35.3260 N.ar    0  non0       -0.1224
      4  C11       23.5770   28.0620   35.1740 C.ar    0  non0        0.1934
      5  N4        23.2150   28.5880   36.3670 N.ar    0  non0       -0.2914
      6  C12       22.9200   29.9660   36.6680 C.3     0  non0        0.1337
      7  C1        22.8000   27.8640   38.6400 C.3     0  non0        0.1510
      8  C2        21.3480   27.5770   38.8310 C.2     0  non0        0.2339
      9  N1        20.5850   27.1710   37.7700 N.am    0  non0       -0.2812
     10  H3        21.0190   27.0700   36.8630 H       0  non0        0.1550
     11  O2        20.8410   27.7050   39.9350 O.2     0  non0       -0.2743
     12  C3        19.2280   26.9020   37.9480 C.ar    0  non0        0.0848
     13  C4        18.2810   27.9370   37.8590 C.ar    0  non0        0.0178
     14  C5        16.9220   27.6680   38.0500 C.ar    0  non0        0.0015
     15  C6        16.4940   26.3670   38.3290 C.ar    0  non0        0.0032
     16  C7        17.4370   25.3350   38.4130 C.ar    0  non0        0.0382
     17  C8        18.7960   25.5930   38.2200 C.ar    0  non0        0.1520
     18  O1        19.7130   24.5850   38.2950 O.3     0  non0       -0.4702
     19  C9        19.7930   24.1150   39.6310 C.3     0  non0        0.2525
     20  S1        23.7150   29.1450   33.7500 S.3     0  non0       -0.0673
     21  C13       22.2680   28.4520   32.8840 C.3     0  non0        0.1340
     22  C14       21.0200   28.9100   33.5580 C.2     0  non0        0.1843
     23  O4        20.8630   30.0950   33.8160 O.2     0  non0       -0.2904
     24  C15       19.9860   27.9460   33.9110 C.ar    0  non0        0.0358
     25  C16       20.3220   26.6060   34.1690 C.ar    0  non0        0.0060
     26  C17       19.3270   25.6790   34.4960 C.ar    0  non0        0.0370
     27  C18       17.9900   26.0790   34.5730 C.ar    0  non0        0.1387
     28  C19       17.6560   27.4150   34.3230 C.ar    0  non0        0.0370
     29  C20       18.6430   28.3480   33.9980 C.ar    0  non0        0.0060
     30  O3        17.0150   25.1790   34.8880 O.3     0  non0       -0.4714
     31  C21       17.5780   23.8810   34.9780 C.3     0  non0        0.2525
@<TRIPOS>BOND
     1    21    22    1
     2    21    20    1
     3    22    23    2
     4    22    24    1
     5    20     4    1
     6    24    29   ar
     7    24    25   ar
     8    29    28   ar
     9    25    26   ar
    10    28    27   ar
    11    26    27   ar
    12    27    30    1
    13    30    31    1
    14     4     3   ar
    15     4     5   ar
    16     3     2   ar
    17     5     6    1
    18     5     1   ar
    19     2     1   ar
    20    10     9    1
    21     1     7    1
    22     9    12    1
    23     9     8   am
    24    13    12   ar
    25    13    14   ar
    26    12    17   ar
    27    14    15   ar
    28    17    18    1
    29    17    16   ar
    30    18    19    1
    31    15    16   ar
    32     7     8    1
    33     8    11    2
@<TRIPOS>MOLECULE
24784936_Intermediate
 31 33 0 0 0
SMALL
GASTEIGER

@<TRIPOS>ATOM
      1  C10       19.2290   24.8500   36.6000 C.ar    0  non0        0.1529
      2  N2        18.5440   24.5460   37.6840 N.ar    0  non0       -0.1323
      3  N3        18.5130   25.6710   38.4910 N.ar    0  non0       -0.1224
      4  C11       19.1770   26.6260   37.8720 C.ar    0  non0        0.1934
      5  N4        19.6270   26.1420   36.6920 N.ar    0  non0       -0.2914
      6  C12       20.3930   26.8380   35.6890 C.3     0  non0        0.1337
      7  C1        19.5910   24.0810   35.4210 C.3     0  non0        0.1510
      8  C2        20.8160   23.2790   35.7070 C.2     0  non0        0.2339
      9  N1        21.4440   23.3960   36.9170 N.am    0  non0       -0.2812
     10  H3        21.0660   24.0300   37.6070 H       0  non0        0.1550
     11  O2        21.2590   22.5180   34.8600 O.2     0  non0       -0.2743
     12  C3        22.5900   22.6470   37.1850 C.ar    0  non0        0.0848
     13  C4        23.8570   23.1270   36.8110 C.ar    0  non0        0.0178
     14  C5        25.0030   22.3690   37.0700 C.ar    0  non0        0.0015
     15  C6        24.8980   21.1280   37.7050 C.ar    0  non0        0.0032
     16  C7        23.6370   20.6510   38.0820 C.ar    0  non0        0.0382
     17  C8        22.4870   21.4030   37.8320 C.ar    0  non0        0.1520
     18  O1        21.2580   20.9420   38.2080 O.3     0  non0       -0.4702
     19  C9        20.9210   19.8040   37.4290 C.3     0  non0        0.2525
     20  S1        19.5470   28.3250   38.3160 S.3     0  non0       -0.0673
     21  C13       20.6870   27.8900   39.6690 C.3     0  non0        0.1340
     22  C14       21.9690   27.3870   39.0970 C.2     0  non0        0.1843
     23  O4        22.5360   28.0190   38.2180 O.2     0  non0       -0.2904
     24  C15       22.5450   26.1400   39.5840 C.ar    0  non0        0.0358
     25  C16       21.7200   25.1370   40.1190 C.ar    0  non0        0.0060
     26  C17       22.2760   23.9460   40.5970 C.ar    0  non0        0.0370
     27  C18       23.6580   23.7430   40.5420 C.ar    0  non0        0.1387
     28  C19       24.4790   24.7390   40.0030 C.ar    0  non0        0.0370
     29  C20       23.9330   25.9300   39.5210 C.ar    0  non0        0.0060
     30  O3        24.2060   22.5850   41.0100 O.3     0  non0       -0.4714
     31  C21       23.1970   21.7900   41.6100 C.3     0  non0        0.2525
@<TRIPOS>BOND
     1    11     8    2
     2     7     8    1
     3     7     1    1
     4     6     5    1
     5     8     9   am
     6     1     5   ar
     7     1     2   ar
     8     5     4   ar
     9    13    14   ar
    10    13    12   ar
    11     9    12    1
    12     9    10    1
    13    14    15   ar
    14    12    17   ar
    15    19    18    1
    16     2     3   ar
    17    15    16   ar
    18    17    16   ar
    19    17    18    1
    20     4    20    1
    21     4     3   ar
    22    23    22    2
    23    20    21    1
    24    22    24    1
    25    22    21    1
    26    29    24   ar
    27    29    28   ar
    28    24    25   ar
    29    28    27   ar
    30    25    26   ar
    31    27    26   ar
    32    27    30    1
    33    30    31    1
@<TRIPOS>MOLECULE
17445640_Intermediate
 22 25 0 0 0
SMALL
GASTEIGER

@<TRIPOS>ATOM
      1  C9        26.9510   28.0890   36.1720 C.ar    0  non0        0.2567
      2  N1        27.7780   28.6510   35.2910 N.ar    0  non0       -0.1063
      3  N2        27.3090   28.2660   34.0530 N.ar    0  non0       -0.1069
      4  C10       26.2520   27.5150   34.2690 C.ar    0  non0        0.2499
      5  O1        25.9830   27.3710   35.6020 O.2     0  non0       -0.4152
      6  C8        27.0830   28.2340   37.5220 C.ar    0  non0        0.0951
      7  C7        26.1450   28.8060   38.3620 C.ar    0  non0        0.0687
      8  C5        26.5510   28.8280   39.7490 C.ar    0  non0        0.0172
      9 Cl         24.5690   29.4930   38.0040 Cl      0  non0       -0.0816
     10  C4        27.8130   28.2570   39.9130 C.ar    0  non0        0.0304
     11  C6        25.8940   29.3160   40.9120 C.ar    0  non0        0.0014
     12  C3        28.4320   28.1600   41.1760 C.ar    0  non0        0.0065
     13  S1        28.4580   27.7240   38.4160 S.2     0  non0       -0.0814
     14  C2        27.7550   28.6500   42.2920 C.ar    0  non0        0.0005
     15  C1        26.5000   29.2230   42.1690 C.ar    0  non0        0.0001
     16  C11       25.4430   26.8990   33.3590 C.ar    0  non0        0.0552
     17  C12       25.6010   27.1490   31.9860 C.ar    0  non0        0.0056
     18  C13       24.7620   26.5280   31.0550 C.ar    0  non0        0.0115
     19  C14       23.7620   25.6500   31.4820 C.ar    0  non0        0.0577
     20  C15       23.6090   25.3960   32.8510 C.ar    0  non0        0.0115
     21 Cl         22.7030   24.8670   30.3210 Cl      0  non0       -0.0822
     22  C16       24.4430   26.0100   33.7860 C.ar    0  non0        0.0056
@<TRIPOS>BOND
     1    21    19    1
     2    18    19   ar
     3    18    17   ar
     4    19    20   ar
     5    17    16   ar
     6    20    22   ar
     7    16    22   ar
     8    16     4    1
     9     3     4   ar
    10     3     2   ar
    11     4     5   ar
    12     2     1   ar
    13     5     1   ar
    14     1     6    1
    15     6     7   ar
    16     6    13   ar
    17     9     7    1
    18     7     8   ar
    19    13    10   ar
    20     8    10   ar
    21     8    11   ar
    22    10    12   ar
    23    11    15   ar
    24    12    14   ar
    25    15    14   ar
@<TRIPOS>MOLECULE
17445640_Intermediate
 22 25 0 0 0
SMALL
GASTEIGER

@<TRIPOS>ATOM
      1  C9        21.5270   27.8390   31.9010 C.ar    0  non0        0.2567
      2  N1        22.1790   26.8000   31.3800 N.ar    0  non0       -0.1063
      3  N2        23.4760   27.2350   31.2010 N.ar    0  non0       -0.1069
      4  C10       23.5140   28.4810   31.6180 C.ar    0  non0        0.2499
      5  O1        22.2990   28.9130   32.0740 O.2     0  non0       -0.4152
      6  C8        20.2030   27.8070   32.2240 C.ar    0  non0        0.0951
      7  C7        19.2240   28.6170   31.6770 C.ar    0  non0        0.0687
      8  C5        17.9030   28.3650   32.2080 C.ar    0  non0        0.0172
      9 Cl         19.3420   29.8780   30.4600 Cl      0  non0       -0.0816
     10  C4        17.9310   27.3470   33.1620 C.ar    0  non0        0.0304
     11  C6        16.6460   28.9640   31.9210 C.ar    0  non0        0.0014
     12  C3        16.7660   26.9150   33.8270 C.ar    0  non0        0.0065
     13  S1        19.5190   26.7400   33.3840 S.2     0  non0       -0.0814
     14  C2        15.5520   27.5270   33.5190 C.ar    0  non0        0.0005
     15  C1        15.4850   28.5400   32.5770 C.ar    0  non0        0.0001
     16  C11       24.5750   29.3390   31.6440 C.ar    0  non0        0.0552
     17  C12       24.4580   30.5930   32.2650 C.ar    0  non0        0.0056
     18  C13       25.5420   31.4770   32.2800 C.ar    0  non0        0.0115
     19  C14       26.7520   31.1180   31.6820 C.ar    0  non0        0.0577
     20  C15       26.8710   29.8640   31.0690 C.ar    0  non0        0.0115
     21 Cl         28.1180   32.2220   31.6940 Cl      0  non0       -0.0822
     22  C16       25.7960   28.9760   31.0510 C.ar    0  non0        0.0056
@<TRIPOS>BOND
     1     9     7    1
     2    22    20   ar
     3    22    16   ar
     4    20    19   ar
     5     3     2   ar
     6     3     4   ar
     7     2     1   ar
     8     4    16    1
     9     4     5   ar
    10    16    17   ar
    11     7     8   ar
    12     7     6   ar
    13    19    21    1
    14    19    18   ar
    15     1     5   ar
    16     1     6    1
    17    11     8   ar
    18    11    15   ar
    19     8    10   ar
    20     6    13   ar
    21    17    18   ar
    22    15    14   ar
    23    10    13   ar
    24    10    12   ar
    25    14    12   ar
@<TRIPOS>MOLECULE
17445640_Intermediate
 22 25 0 0 0
SMALL
GASTEIGER

@<TRIPOS>ATOM
      1  C9        18.0070   28.0830   34.1300 C.ar    0  non0        0.2567
      2  N1        18.4870   29.1070   34.8350 N.ar    0  non0       -0.1063
      3  N2        18.4210   28.7070   36.1530 N.ar    0  non0       -0.1069
      4  C10       17.9150   27.4940   36.1510 C.ar    0  non0        0.2499
      5  O1        17.6340   27.0510   34.8880 O.2     0  non0       -0.4152
      6  C8        17.9050   28.0910   32.7700 C.ar    0  non0        0.0951
      7  C7        16.7290   27.9730   32.0530 C.ar    0  non0        0.0687
      8  C5        16.9190   28.0140   30.6210 C.ar    0  non0        0.0172
      9 Cl         15.0730   27.7860   32.6100 Cl      0  non0       -0.0816
     10  C4        18.2680   28.1650   30.2980 C.ar    0  non0        0.0304
     11  C6        15.9910   27.9270   29.5470 C.ar    0  non0        0.0014
     12  C3        18.7140   28.2320   28.9620 C.ar    0  non0        0.0065
     13  S1        19.2430   28.2510   31.7050 S.2     0  non0       -0.0814
     14  C2        17.7730   28.1440   27.9370 C.ar    0  non0        0.0005
     15  C1        16.4250   27.9940   28.2190 C.ar    0  non0        0.0001
     16  C11       17.6560   26.6760   37.2130 C.ar    0  non0        0.0552
     17  C12       17.2510   25.3480   37.0030 C.ar    0  non0        0.0056
     18  C13       16.9730   24.5150   38.0920 C.ar    0  non0        0.0115
     19  C14       17.1010   24.9960   39.3970 C.ar    0  non0        0.0577
     20  C15       17.5120   26.3180   39.6070 C.ar    0  non0        0.0115
     21 Cl         16.7520   23.9580   40.7710 Cl      0  non0       -0.0822
     22  C16       17.7920   27.1550   38.5260 C.ar    0  non0        0.0056
@<TRIPOS>BOND
     1    14    15   ar
     2    14    12   ar
     3    15    11   ar
     4    12    10   ar
     5    11     8   ar
     6    10     8   ar
     7    10    13   ar
     8     8     7   ar
     9    13     6   ar
    10     7     9    1
    11     7     6   ar
    12     6     1    1
    13     1     2   ar
    14     1     5   ar
    15     2     3   ar
    16     5     4   ar
    17     4     3   ar
    18     4    16    1
    19    17    16   ar
    20    17    18   ar
    21    16    22   ar
    22    18    19   ar
    23    22    20   ar
    24    19    20   ar
    25    19    21    1
@<TRIPOS>MOLECULE
14736677_Intermediate
 19 21 0 0 0
SMALL
GASTEIGER

@<TRIPOS>ATOM
      1  C1        17.6140   27.1610   28.5940 C.3     0  non0        0.0522
      2  C2        18.5020   26.6350   29.6480 C.ar    0  non0        0.0637
      3  C3        19.0120   27.5950   30.6820 C.ar    0  non0        0.0296
      4  C4        19.8200   27.0830   31.6270 C.ar    0  non0        0.0651
      5  C5        20.3780   27.9440   32.6880 C.3     0  non0        0.0523
      6  N1        20.1220   25.7170   31.5850 N.ar    0  non0       -0.1994
      7  C6        19.6000   24.8860   30.5850 C.ar    0  non0        0.2536
      8  N2        18.7810   25.3650   29.6030 N.ar    0  non0       -0.2143
      9  N3        20.0340   23.6610   30.7830 N.ar    0  non0       -0.1933
     10  C7        20.7940   23.7720   31.8960 C.ar    0  non0        0.1626
     11  N4        20.9070   24.9880   32.4120 N.ar    0  non0       -0.1479
     12  C8        21.4760   22.6630   32.5460 C.3     0  non0        0.0723
     13  C9        20.4810   21.5480   32.8240 C.3     0  non0        0.0344
     14  C10       19.6440   21.9110   33.9960 C.ar    0  non0       -0.0217
     15  C11       18.2460   21.9830   33.8730 C.ar    0  non0       -0.0043
     16  C12       17.4570   22.3370   34.9730 C.ar    0  non0       -0.0003
     17  C13       18.0560   22.6180   36.2040 C.ar    0  non0       -0.0000
     18  C14       19.4470   22.5410   36.3290 C.ar    0  non0       -0.0003
     19  C15       20.2410   22.1860   35.2370 C.ar    0  non0       -0.0043
@<TRIPOS>BOND
     1     1     2    1
     2     8     2   ar
     3     8     7   ar
     4     2     3   ar
     5     7     9   ar
     6     7     6   ar
     7     3     4   ar
     8     9    10   ar
     9     6     4   ar
    10     6    11   ar
    11     4     5    1
    12    10    11   ar
    13    10    12    1
    14    12    13    1
    15    13    14    1
    16    15    14   ar
    17    15    16   ar
    18    14    19   ar
    19    16    17   ar
    20    19    18   ar
    21    17    18   ar
@<TRIPOS>MOLECULE
14736677_Intermediate
 19 21 0 0 0
SMALL
GASTEIGER

@<TRIPOS>ATOM
      1  C1        17.9450   24.5770   33.7020 C.3     0  non0        0.0522
      2  C2        17.7180   24.7270   35.1520 C.ar    0  non0        0.0637
      3  C3        16.3160   24.9820   35.6200 C.ar    0  non0        0.0296
      4  C4        16.1430   25.1150   36.9470 C.ar    0  non0        0.0651
      5  C5        14.8030   25.3720   37.5110 C.3     0  non0        0.0523
      6  N1        17.2600   25.0050   37.7850 N.ar    0  non0       -0.1994
      7  C6        18.5380   24.7620   37.2660 C.ar    0  non0        0.2536
      8  N2        18.7590   24.6260   35.9240 N.ar    0  non0       -0.2143
      9  N3        19.3950   24.7000   38.2610 N.ar    0  non0       -0.1933
     10  C7        18.6230   24.8940   39.3540 C.ar    0  non0        0.1626
     11  N4        17.3330   25.1100   39.1320 N.ar    0  non0       -0.1479
     12  C8        19.1110   24.8800   40.7240 C.3     0  non0        0.0723
     13  C9        19.9050   23.6070   40.9670 C.3     0  non0        0.0344
     14  C10       18.9710   22.4650   41.1350 C.ar    0  non0       -0.0217
     15  C11       19.0630   21.3440   40.2920 C.ar    0  non0       -0.0043
     16  C12       18.1760   20.2730   40.4410 C.ar    0  non0       -0.0003
     17  C13       17.1930   20.3080   41.4340 C.ar    0  non0       -0.0000
     18  C14       17.1050   21.4210   42.2780 C.ar    0  non0       -0.0003
     19  C15       17.9880   22.4930   42.1380 C.ar    0  non0       -0.0043
@<TRIPOS>BOND
     1     1     2    1
     2     2     3   ar
     3     2     8   ar
     4     3     4   ar
     5     8     7   ar
     6     4     5    1
     7     4     6   ar
     8     7     6   ar
     9     7     9   ar
    10     6    11   ar
    11     9    10   ar
    12    11    10   ar
    13    10    12    1
    14    15    16   ar
    15    15    14   ar
    16    16    17   ar
    17    12    13    1
    18    13    14    1
    19    14    19   ar
    20    17    18   ar
    21    19    18   ar
@<TRIPOS>MOLECULE
14736677_Intermediate
 19 21 0 0 0
SMALL
GASTEIGER

@<TRIPOS>ATOM
      1  C1        21.2460   23.6730   31.8340 C.3     0  non0        0.0522
      2  C2        21.2320   23.5340   33.3040 C.ar    0  non0        0.0637
      3  C3        20.3290   22.4990   33.9030 C.ar    0  non0        0.0296
      4  C4        20.3390   22.4000   35.2450 C.ar    0  non0        0.0651
      5  C5        19.4830   21.4140   35.9350 C.3     0  non0        0.0523
      6  N1        21.1780   23.2500   35.9740 N.ar    0  non0       -0.1994
      7  C6        21.9970   24.1900   35.3350 C.ar    0  non0        0.2536
      8  N2        22.0130   24.3270   33.9760 N.ar    0  non0       -0.2143
      9  N3        22.6790   24.8470   36.2470 N.ar    0  non0       -0.1933
     10  C7        22.2730   24.2880   37.4080 C.ar    0  non0        0.1626
     11  N4        21.3510   23.3390   37.3130 N.ar    0  non0       -0.1479
     12  C8        22.7740   24.6560   38.7230 C.3     0  non0        0.0723
     13  C9        24.2940   24.6190   38.7160 C.3     0  non0        0.0344
     14  C10       24.7550   23.2090   38.7860 C.ar    0  non0       -0.0217
     15  C11       25.5750   22.6810   37.7740 C.ar    0  non0       -0.0043
     16  C12       26.0000   21.3490   37.8330 C.ar    0  non0       -0.0003
     17  C13       25.6150   20.5360   38.9020 C.ar    0  non0       -0.0000
     18  C14       24.8040   21.0630   39.9120 C.ar    0  non0       -0.0003
     19  C15       24.3770   22.3910   39.8630 C.ar    0  non0       -0.0043
@<TRIPOS>BOND
     1     1     2    1
     2     2     3   ar
     3     2     8   ar
     4     3     4   ar
     5     8     7   ar
     6     4     5    1
     7     4     6   ar
     8     7     6   ar
     9     7     9   ar
    10     6    11   ar
    11     9    10   ar
    12    11    10   ar
    13    10    12    1
    14    15    16   ar
    15    15    14   ar
    16    16    17   ar
    17    13    12    1
    18    13    14    1
    19    14    19   ar
    20    17    18   ar
    21    19    18   ar
@<TRIPOS>MOLECULE
17509462_Intermediate
 36 39 0 0 0
SMALL
GASTEIGER

@<TRIPOS>ATOM
      1  N1        19.9370   26.7570   33.6570 N.ar    0  non0       -0.2757
      2  C4        19.8850   28.1230   33.7850 C.ar    0  non0        0.2637
      3  C5        20.4740   28.6730   35.0130 C.ar    0  non0        0.0739
      4  C6        20.4850   30.0490   35.2620 C.ar    0  non0        0.0064
      5  C7        21.0560   30.5250   36.4410 C.ar    0  non0        0.0048
      6  C8        21.6070   29.6280   37.3570 C.ar    0  non0        0.0551
      7  C9        21.5900   28.2550   37.0950 C.ar    0  non0        0.0238
      8  C10       21.0210   27.7620   35.9180 C.ar    0  non0        0.0881
      9  N2        21.0230   26.3780   35.6900 N.ar    0  non0       -0.2224
     10  C11       20.4960   25.9180   34.5960 C.ar    0  non0        0.1738
     11  O3        19.3780   28.8030   32.9180 O.2     0  non0       -0.2669
     12  C19       22.1990   30.1240   38.5810 C.2     0  non0        0.2491
     13  N3        21.4260   30.2860   39.6980 N.am    0  non0       -0.2761
     14  C20       21.9850   30.7800   40.9380 C.3     0  non0        0.0942
     15  C24       20.0120   29.9700   39.6880 C.3     0  non0        0.0942
     16  C21       21.6990   29.7990   42.0670 C.3     0  non0        0.0306
     17  C22       20.2050   29.4980   42.1610 C.3     0  non0        0.0797
     18  C23       19.6620   29.0130   40.8220 C.3     0  non0        0.0306
     19  O2        23.3900   30.3980   38.6170 O.2     0  non0       -0.2699
     20  C25       19.4820   30.7400   42.5600 C.2     0  non0        0.2190
     21  N4        20.0400   31.5920   43.4740 N.am    0  non0       -0.3288
     22  H24       19.6900   32.5360   43.5640 H       0  non0        0.1449
     23  H25       20.8010   31.2780   44.0580 H       0  non0        0.1449
     24  O1        18.3900   30.9970   42.0740 O.2     0  non0       -0.2753
     25  S1        20.5020   24.2020   34.3230 S.3     0  non0       -0.0724
     26  C12       19.6530   23.7900   35.8800 C.3     0  non0        0.0913
     27  C13       18.1820   23.8590   35.6770 C.ar    0  non0       -0.0108
     28  C14       17.5160   22.8490   34.9650 C.ar    0  non0       -0.0025
     29  C15       16.1320   22.9220   34.7650 C.ar    0  non0        0.0111
     30  C16       15.4030   23.9980   35.2750 C.ar    0  non0        0.0577
     31  C17       16.0660   25.0010   35.9900 C.ar    0  non0        0.0111
     32 Cl         13.6660   24.0990   35.0250 Cl      0  non0       -0.0822
     33  C18       17.4460   24.9370   36.1980 C.ar    0  non0       -0.0025
     34  C3        19.3660   26.2120   32.4690 C.3     0  non0        0.1110
     35  C2        17.9110   26.0100   32.6680 C.3     0  non0        0.0247
     36  C1        17.2200   25.0050   31.9230 C.3     0  non0        0.0021
@<TRIPOS>BOND
     1    36    35    1
     2    34    35    1
     3    34     1    1
     4    11     2    2
     5     1     2   ar
     6     1    10   ar
     7     2     3   ar
     8    25    10    1
     9    25    26    1
    10    10     9   ar
    11    29    28   ar
    12    29    30   ar
    13    28    27   ar
    14     3     4   ar
    15     3     8   ar
    16    32    30    1
    17     4     5   ar
    18    30    31   ar
    19    27    26    1
    20    27    33   ar
    21     9     8   ar
    22     8     7   ar
    23    31    33   ar
    24     5     6   ar
    25     7     6   ar
    26     6    12    1
    27    12    19    2
    28    12    13   am
    29    15    13    1
    30    15    18    1
    31    13    14    1
    32    18    17    1
    33    14    16    1
    34    16    17    1
    35    24    20    2
    36    17    20    1
    37    20    21   am
    38    21    22    1
    39    21    23    1
@<TRIPOS>MOLECULE
17509462_Intermediate
 36 39 0 0 0
SMALL
GASTEIGER

@<TRIPOS>ATOM
      1  N1        22.9920   23.9480   29.9110 N.ar    0  non0       -0.2757
      2  C4        21.7480   23.4030   29.7030 C.ar    0  non0        0.2637
      3  C5        20.6140   24.1890   30.2060 C.ar    0  non0        0.0739
      4  C6        19.2970   23.7430   30.0560 C.ar    0  non0        0.0064
      5  C7        18.2520   24.5230   30.5490 C.ar    0  non0        0.0048
      6  C8        18.5300   25.7340   31.1860 C.ar    0  non0        0.0551
      7  C9        19.8510   26.1660   31.3290 C.ar    0  non0        0.0238
      8  C10       20.9090   25.3970   30.8400 C.ar    0  non0        0.0881
      9  N2        22.2220   25.8650   31.0020 N.ar    0  non0       -0.2224
     10  C11       23.2060   25.1510   30.5470 C.ar    0  non0        0.1738
     11  O3        21.6300   22.3390   29.1340 O.2     0  non0       -0.2669
     12  C19       17.4440   26.5420   31.6980 C.2     0  non0        0.2491
     13  N3        17.0520   26.4130   33.0030 N.am    0  non0       -0.2761
     14  C20       15.9700   27.2050   33.5470 C.3     0  non0        0.0942
     15  C24       17.7050   25.4790   33.8970 C.3     0  non0        0.0942
     16  C21       16.4470   27.9640   34.7790 C.3     0  non0        0.0306
     17  C22       17.0650   27.0110   35.8000 C.3     0  non0        0.0797
     18  C23       18.1750   26.1810   35.1660 C.3     0  non0        0.0306
     19  O2        16.8760   27.3380   30.9660 O.2     0  non0       -0.2699
     20  C25       16.0060   26.0970   36.3170 C.2     0  non0        0.2190
     21  N4        14.7380   26.5680   36.5250 N.am    0  non0       -0.3288
     22  H24       13.9700   25.9210   36.6320 H       0  non0        0.1449
     23  H25       14.5700   27.5630   36.5710 H       0  non0        0.1449
     24  O1        16.2690   24.9280   36.5580 O.2     0  non0       -0.2753
     25  S1        24.8290   25.7380   30.7530 S.3     0  non0       -0.0724
     26  C12       24.7040   25.9200   32.5610 C.3     0  non0        0.0913
     27  C13       25.0610   24.6340   33.2150 C.ar    0  non0       -0.0108
     28  C14       24.0640   23.8280   33.7880 C.ar    0  non0       -0.0025
     29  C15       24.4040   22.6230   34.4140 C.ar    0  non0        0.0111
     30  C16       25.7380   22.2110   34.4710 C.ar    0  non0        0.0577
     31  C17       26.7290   23.0110   33.8940 C.ar    0  non0        0.0111
     32 Cl         26.1730   20.7010   35.2580 Cl      0  non0       -0.0822
     33  C18       26.4010   24.2140   33.2650 C.ar    0  non0       -0.0025
     34  C3        24.1010   23.1920   29.4280 C.3     0  non0        0.1110
     35  C2        24.5100   22.2050   30.4540 C.3     0  non0        0.0247
     36  C1        25.8590   21.7300   30.4920 C.3     0  non0        0.0021
@<TRIPOS>BOND
     1    11     2    2
     2    34     1    1
     3    34    35    1
     4     2     1   ar
     5     2     3   ar
     6     1    10   ar
     7     4     3   ar
     8     4     5   ar
     9     3     8   ar
    10    35    36    1
    11    10    25    1
    12    10     9   ar
    13     5     6   ar
    14    25    26    1
    15     8     9   ar
    16     8     7   ar
    17    19    12    2
    18     6     7   ar
    19     6    12    1
    20    12    13   am
    21    26    27    1
    22    13    14    1
    23    13    15    1
    24    27    33   ar
    25    27    28   ar
    26    33    31   ar
    27    14    16    1
    28    28    29   ar
    29    31    30   ar
    30    15    18    1
    31    29    30   ar
    32    30    32    1
    33    16    17    1
    34    18    17    1
    35    17    20    1
    36    20    21   am
    37    20    24    2
    38    21    23    1
    39    21    22    1
@<TRIPOS>MOLECULE
17509462_Intermediate
 36 39 0 0 0
SMALL
GASTEIGER

@<TRIPOS>ATOM
      1  N1        14.0750   27.0960   30.7050 N.ar    0  non0       -0.2757
      2  C4        13.0390   27.6530   31.4150 C.ar    0  non0        0.2637
      3  C5        13.3400   28.0090   32.8090 C.ar    0  non0        0.0739
      4  C6        12.3700   28.5840   33.6370 C.ar    0  non0        0.0064
      5  C7        12.7000   28.9050   34.9530 C.ar    0  non0        0.0048
      6  C8        13.9880   28.6500   35.4280 C.ar    0  non0        0.0551
      7  C9        14.9460   28.0750   34.5890 C.ar    0  non0        0.0238
      8  C10       14.6310   27.7470   33.2680 C.ar    0  non0        0.0881
      9  N2        15.6200   27.1720   32.4550 N.ar    0  non0       -0.2224
     10  C11       15.3290   26.8680   31.2280 C.ar    0  non0        0.1738
     11  O3        11.9600   27.8280   30.8930 O.2     0  non0       -0.2669
     12  C19       14.3290   28.9830   36.7940 C.2     0  non0        0.2491
     13  N3        14.1690   28.0540   37.7850 N.am    0  non0       -0.2761
     14  C20       14.5000   28.3540   39.1620 C.3     0  non0        0.0942
     15  C24       13.6630   26.7270   37.5000 C.3     0  non0        0.0942
     16  C21       15.4930   27.3300   39.6960 C.3     0  non0        0.0306
     17  C22       14.9680   25.9100   39.5010 C.3     0  non0        0.0797
     18  C23       14.6060   25.6580   38.0420 C.3     0  non0        0.0306
     19  O2        14.7580   30.0960   37.0630 O.2     0  non0       -0.2699
     20  C25       13.7530   25.7190   40.3460 C.2     0  non0        0.2190
     21  N4        13.6870   26.2920   41.5870 N.am    0  non0       -0.3288
     22  H24       12.7960   26.3810   42.0550 H       0  non0        0.1449
     23  H25       14.5280   26.6270   42.0350 H       0  non0        0.1449
     24  O1        12.8180   25.0510   39.9320 O.2     0  non0       -0.2753
     25  S1        16.5600   26.1550   30.2290 S.3     0  non0       -0.0724
     26  C12       16.8930   24.7640   31.3560 C.3     0  non0        0.0913
     27  C13       16.0340   23.6090   30.9860 C.ar    0  non0       -0.0108
     28  C14       16.3190   22.8500   29.8390 C.ar    0  non0       -0.0025
     29  C15       15.5010   21.7700   29.4860 C.ar    0  non0        0.0111
     30  C16       14.3980   21.4350   30.2740 C.ar    0  non0        0.0577
     31  C17       14.1180   22.1870   31.4200 C.ar    0  non0        0.0111
     32 Cl         13.3650   20.0830   29.8360 Cl      0  non0       -0.0822
     33  C18       14.9280   23.2660   31.7830 C.ar    0  non0       -0.0025
     34  C3        13.7950   26.7450   29.3510 C.3     0  non0        0.1110
     35  C2        13.1940   25.3920   29.3060 C.3     0  non0        0.0247
     36  C1        13.4110   24.5510   28.1700 C.3     0  non0        0.0021
@<TRIPOS>BOND
     1    36    35    1
     2    35    34    1
     3    34     1    1
     4    29    28   ar
     5    29    30   ar
     6    32    30    1
     7    28    27   ar
     8    25    10    1
     9    25    26    1
    10    30    31   ar
    11     1    10   ar
    12     1     2   ar
    13    11     2    2
    14    27    26    1
    15    27    33   ar
    16    10     9   ar
    17     2     3   ar
    18    31    33   ar
    19     9     8   ar
    20     3     8   ar
    21     3     4   ar
    22     8     7   ar
    23     4     5   ar
    24     7     6   ar
    25     5     6   ar
    26     6    12    1
    27    12    19    2
    28    12    13   am
    29    15    13    1
    30    15    18    1
    31    13    14    1
    32    18    17    1
    33    14    16    1
    34    17    16    1
    35    17    20    1
    36    24    20    2
    37    20    21   am
    38    21    23    1
    39    21    22    1
@<TRIPOS>MOLECULE
844164_Intermediate
 22 25 0 0 0
SMALL
GASTEIGER

@<TRIPOS>ATOM
      1  N1        20.1820   28.5060   39.6440 N.ar    0  non0       -0.1913
      2  C8        21.1450   29.1930   40.0140 C.ar    0  non0        0.1881
      3  C9        22.4970   29.0600   39.8830 C.ar    0  non0        0.0377
      4  C10       23.3590   30.0400   40.4050 C.ar    0  non0        0.0028
      5  C11       24.7450   29.9080   40.2580 C.ar    0  non0       -0.0027
      6  C12       25.2820   28.8000   39.5960 C.ar    0  non0       -0.0032
      7  C13       26.6820   28.6630   39.4420 C.3     0  non0        0.1356
      8  N2        28.0780   28.5250   39.2880 N.3     0  non0       -0.1262
      9  C14       24.4210   27.8230   39.0820 C.ar    0  non0       -0.0027
     10  C15       23.0390   27.9430   39.2240 C.ar    0  non0        0.0028
     11  N3        20.6660   30.2370   40.6570 N.ar    0  non0       -0.1078
     12  N4        19.3140   30.0660   40.7010 N.ar    0  non0       -0.0223
     13  N5        18.9560   28.9550   40.0800 N.ar    0  non0       -0.0386
     14  C5        20.3230   27.3310   38.8230 C.ar    0  non0        0.0894
     15  C4        20.4130   26.0670   39.4480 C.ar    0  non0        0.0226
     16  C3        20.5800   24.9170   38.6620 C.ar    0  non0        0.0417
     17  C2        20.6220   25.0660   37.2900 C.ar    0  non0        0.1765
     18  O1        20.7680   24.0600   36.3860 O.3     0  non0       -0.4346
     19  C7        20.5190   26.2990   36.6910 C.ar    0  non0        0.1779
     20  C1        20.7510   24.8040   35.1490 C.3     0  non0        0.4294
     21  O2        20.5870   26.2250   35.3360 O.3     0  non0       -0.4346
     22  C6        20.3720   27.4520   37.4290 C.ar    0  non0        0.0594
@<TRIPOS>BOND
     1    20    21    1
     2    20    18    1
     3    21    19    1
     4    18    17    1
     5    19    17   ar
     6    19    22   ar
     7    17    16   ar
     8    22    14   ar
     9    16    15   ar
    10    14    15   ar
    11    14     1    1
    12     9    10   ar
    13     9     6   ar
    14    10     3   ar
    15     8     7    1
    16     7     6    1
    17     6     5   ar
    18     1     2   ar
    19     1    13   ar
    20     3     2    1
    21     3     4   ar
    22     2    11   ar
    23    13    12   ar
    24     5     4   ar
    25    11    12   ar
@<TRIPOS>MOLECULE
844164_Intermediate
 22 25 0 0 0
SMALL
GASTEIGER

@<TRIPOS>ATOM
      1  N1        21.5190   28.2090   35.9750 N.ar    0  non0       -0.1913
      2  C8        20.9260   27.7570   34.9840 C.ar    0  non0        0.1881
      3  C9        19.9720   26.7950   34.8200 C.ar    0  non0        0.0377
      4  C10       19.4650   26.5110   33.5410 C.ar    0  non0        0.0028
      5  C11       18.4770   25.5340   33.3770 C.ar    0  non0       -0.0027
      6  C12       17.9910   24.8290   34.4820 C.ar    0  non0       -0.0032
      7  C13       16.9900   23.8410   34.3230 C.3     0  non0        0.1356
      8  N2        15.9920   22.8560   34.1640 N.3     0  non0       -0.1262
      9  C14       18.5020   25.1100   35.7540 C.ar    0  non0       -0.0027
     10  C15       19.4880   26.0810   35.9300 C.ar    0  non0        0.0028
     11  N3        21.3790   28.3940   33.9250 N.ar    0  non0       -0.1078
     12  N4        22.3630   29.2240   34.3750 N.ar    0  non0       -0.0223
     13  N5        22.5040   29.1250   35.6860 N.ar    0  non0       -0.0386
     14  C5        21.2090   27.8130   37.3250 C.ar    0  non0        0.0894
     15  C4        21.9470   26.7640   37.9170 C.ar    0  non0        0.0226
     16  C3        21.6370   26.3500   39.2210 C.ar    0  non0        0.0417
     17  C2        20.6270   27.0110   39.8920 C.ar    0  non0        0.1765
     18  O1        20.2070   26.7440   41.1580 O.3     0  non0       -0.4346
     19  C7        19.9240   28.0400   39.3120 C.ar    0  non0        0.1779
     20  C1        19.1560   27.7210   41.3050 C.3     0  non0        0.4294
     21  O2        18.9740   28.5510   40.1390 O.3     0  non0       -0.4346
     22  C6        20.1880   28.4640   38.0290 C.ar    0  non0        0.0594
@<TRIPOS>BOND
     1     5     4   ar
     2     5     6   ar
     3     4     3   ar
     4    11    12   ar
     5    11     2   ar
     6     8     7    1
     7     7     6    1
     8    12    13   ar
     9     6     9   ar
    10     3     2    1
    11     3    10   ar
    12     2     1   ar
    13    13     1   ar
    14     9    10   ar
    15     1    14    1
    16    14    15   ar
    17    14    22   ar
    18    15    16   ar
    19    22    19   ar
    20    16    17   ar
    21    19    17   ar
    22    19    21    1
    23    17    18    1
    24    21    20    1
    25    18    20    1
@<TRIPOS>MOLECULE
844164_Intermediate
 22 25 0 0 0
SMALL
GASTEIGER

@<TRIPOS>ATOM
      1  N1        17.8660   25.0630   38.9680 N.ar    0  non0       -0.1913
      2  C8        18.0050   24.2700   38.0250 C.ar    0  non0        0.1881
      3  C9        18.9880   23.3890   37.6780 C.ar    0  non0        0.0377
      4  C10       18.8490   22.5890   36.5310 C.ar    0  non0        0.0028
      5  C11       19.8520   21.6760   36.1850 C.ar    0  non0       -0.0027
      6  C12       21.0010   21.5570   36.9720 C.ar    0  non0       -0.0032
      7  C13       22.0170   20.6350   36.6290 C.3     0  non0        0.1356
      8  N2        23.0320   19.7140   36.2860 N.3     0  non0       -0.1262
      9  C14       21.1390   22.3590   38.1110 C.ar    0  non0       -0.0027
     10  C15       20.1470   23.2740   38.4650 C.ar    0  non0        0.0028
     11  N3        16.9410   24.3750   37.2570 N.ar    0  non0       -0.1078
     12  N4        16.1820   25.3700   37.7950 N.ar    0  non0       -0.0223
     13  N5        16.7460   25.8590   38.8870 N.ar    0  non0       -0.0386
     14  C5        18.7960   25.1520   40.0640 C.ar    0  non0        0.0894
     15  C4        19.8390   26.1040   40.0020 C.ar    0  non0        0.0226
     16  C3        20.7680   26.1820   41.0500 C.ar    0  non0        0.0417
     17  C2        20.6080   25.3330   42.1260 C.ar    0  non0        0.1765
     18  O1        21.4090   25.2830   43.2250 O.3     0  non0       -0.4346
     19  C7        19.5810   24.4200   42.1840 C.ar    0  non0        0.1779
     20  C1        20.7710   24.2310   43.9780 C.3     0  non0        0.4294
     21  O2        19.6070   23.6820   43.3260 O.3     0  non0       -0.4346
     22  C6        18.6600   24.3020   41.1690 C.ar    0  non0        0.0594
@<TRIPOS>BOND
     1     5     4   ar
     2     5     6   ar
     3     8     7    1
     4     4     3   ar
     5     7     6    1
     6     6     9   ar
     7    11    12   ar
     8    11     2   ar
     9     3     2    1
    10     3    10   ar
    11    12    13   ar
    12     2     1   ar
    13     9    10   ar
    14    13     1   ar
    15     1    14    1
    16    15    14   ar
    17    15    16   ar
    18    14    22   ar
    19    16    17   ar
    20    22    19   ar
    21    17    19   ar
    22    17    18    1
    23    19    21    1
    24    18    20    1
    25    21    20    1
@<TRIPOS>MOLECULE
24357067_Intermediate
 23 25 0 0 0
SMALL
GASTEIGER

@<TRIPOS>ATOM
      1  N1        21.5320   24.3170   38.4260 N.3     0  non0       -0.1774
      2  H8        21.0770   24.4000   37.5290 H       0  non0        0.1489
      3  S1        22.4710   25.3980   39.2510 S.O2    0  non0        0.0603
      4  O1        23.4430   24.5820   40.3220 O.2     0  non0       -0.1530
      5  O2        23.4150   26.2420   38.1770 O.2     0  non0       -0.1530
      6  C5        21.4390   26.5190   40.1320 C.ar    0  non0        0.1219
      7  C4        20.3760   27.1580   39.4890 C.ar    0  non0        0.0196
      8  C3        19.5580   28.0470   40.1960 C.ar    0  non0       -0.0029
      9  C2        19.8070   28.2880   41.5490 C.ar    0  non0       -0.0218
     10  C1        18.9310   29.2160   42.2900 C.3     0  non0        0.0310
     11  C7        20.8710   27.6610   42.1990 C.ar    0  non0       -0.0029
     12  C6        21.6810   26.7750   41.4860 C.ar    0  non0        0.0196
     13  C8        21.4070   23.0880   39.2040 C.3     0  non0        0.1159
     14  C9        19.9540   22.8930   39.6120 C.3     0  non0        0.1248
     15  N2        19.7480   23.4410   40.9390 N.ar    0  non0       -0.3246
     16  C10       20.5060   23.1580   41.8920 C.ar    0  non0        0.0760
     17  C11       20.0110   23.8510   42.9810 C.ar    0  non0        0.0201
     18  C12       18.8670   24.5830   42.5710 C.ar    0  non0        0.0173
     19  C13       17.9820   25.4500   43.2400 C.ar    0  non0        0.0015
     20  C17       18.6740   24.3250   41.2130 C.ar    0  non0        0.0600
     21  C14       16.9280   26.0360   42.5340 C.ar    0  non0        0.0001
     22  C15       16.7490   25.7700   41.1810 C.ar    0  non0        0.0015
     23  C16       17.6160   24.9110   40.4960 C.ar    0  non0        0.0172
@<TRIPOS>BOND
     1     2     1    1
     2     5     3    2
     3     1    13    1
     4     1     3    1
     5    13    14    1
     6     3     6    1
     7     3     4    2
     8     7     6   ar
     9     7     8   ar
    10    14    15    1
    11     6    12   ar
    12     8     9   ar
    13    23    22   ar
    14    23    20   ar
    15    15    20   ar
    16    15    16   ar
    17    22    21   ar
    18    20    18   ar
    19    12    11   ar
    20     9    11   ar
    21     9    10    1
    22    16    17   ar
    23    21    19   ar
    24    18    17   ar
    25    18    19   ar
@<TRIPOS>MOLECULE
24357067_Intermediate
 23 25 0 0 0
SMALL
GASTEIGER

@<TRIPOS>ATOM
      1  N1        24.8810   22.1230   40.8540 N.3     0  non0       -0.1774
      2  H8        24.3720   21.7980   41.6640 H       0  non0        0.1489
      3  S1        25.0820   21.4250   39.3700 S.O2    0  non0        0.0603
      4  O1        26.4560   22.0260   38.6570 O.2     0  non0       -0.1530
      5  O2        25.2230   19.7800   39.5470 O.2     0  non0       -0.1530
      6  C5        23.6880   21.7890   38.3580 C.ar    0  non0        0.1219
      7  C4        22.3920   21.5910   38.8390 C.ar    0  non0        0.0196
      8  C3        21.2880   21.8840   38.0300 C.ar    0  non0       -0.0029
      9  C2        21.4900   22.3800   36.7400 C.ar    0  non0       -0.0218
     10  C1        20.3210   22.6990   35.8980 C.3     0  non0        0.0310
     11  C7        22.7810   22.5740   36.2460 C.ar    0  non0       -0.0029
     12  C6        23.8750   22.2800   37.0610 C.ar    0  non0        0.0196
     13  C8        25.5890   23.3980   40.8930 C.3     0  non0        0.1159
     14  C9        24.5860   24.5290   41.0600 C.3     0  non0        0.1248
     15  N2        24.2400   25.0630   39.7570 N.ar    0  non0       -0.3246
     16  C10       25.1150   25.3820   38.9230 C.ar    0  non0        0.0760
     17  C11       24.4270   25.8440   37.8160 C.ar    0  non0        0.0201
     18  C12       23.0350   25.7660   38.0830 C.ar    0  non0        0.0173
     19  C13       21.8870   26.0860   37.3340 C.ar    0  non0        0.0015
     20  C17       22.8880   25.2470   39.3710 C.ar    0  non0        0.0600
     21  C14       20.6220   25.8790   37.8910 C.ar    0  non0        0.0001
     22  C15       20.4910   25.3620   39.1750 C.ar    0  non0        0.0015
     23  C16       21.6190   25.0370   39.9380 C.ar    0  non0        0.0172
@<TRIPOS>BOND
     1    10     9    1
     2    11     9   ar
     3    11    12   ar
     4     9     8   ar
     5    12     6   ar
     6    19    21   ar
     7    19    18   ar
     8    17    18   ar
     9    17    16   ar
    10    21    22   ar
    11     8     7   ar
    12    18    20   ar
    13     6     7   ar
    14     6     3    1
    15     4     3    2
    16    16    15   ar
    17    22    23   ar
    18     3     5    2
    19     3     1    1
    20    20    15   ar
    21    20    23   ar
    22    15    14    1
    23     1    13    1
    24     1     2    1
    25    13    14    1
@<TRIPOS>MOLECULE
24357067_Intermediate
 23 25 0 0 0
SMALL
GASTEIGER

@<TRIPOS>ATOM
      1  N1        16.1580   26.7180   28.4520 N.3     0  non0       -0.1774
      2  H8        17.1050   26.9600   28.1980 H       0  non0        0.1489
      3  S1        15.5310   25.2910   28.9990 S.O2    0  non0        0.0603
      4  O1        13.9030   25.2420   28.6770 O.2     0  non0       -0.1530
      5  O2        16.2850   24.0250   28.2320 O.2     0  non0       -0.1530
      6  C5        15.7900   25.1630   30.7350 C.ar    0  non0        0.1219
      7  C4        17.0520   25.4060   31.2830 C.ar    0  non0        0.0196
      8  C3        17.2510   25.3050   32.6650 C.ar    0  non0       -0.0029
      9  C2        16.1790   24.9640   33.4940 C.ar    0  non0       -0.0218
     10  C1        16.3940   24.8730   34.9500 C.3     0  non0        0.0310
     11  C7        14.9160   24.7110   32.9560 C.ar    0  non0       -0.0029
     12  C6        14.7270   24.8160   31.5770 C.ar    0  non0        0.0196
     13  C8        15.0940   27.7140   28.3590 C.3     0  non0        0.1159
     14  C9        15.3670   28.8390   29.3470 C.3     0  non0        0.1248
     15  N2        14.6540   28.5780   30.5830 N.ar    0  non0       -0.3246
     16  C10       13.4400   28.2790   30.5920 C.ar    0  non0        0.0760
     17  C11       13.1080   28.1060   31.9220 C.ar    0  non0        0.0201
     18  C12       14.2640   28.3370   32.7120 C.ar    0  non0        0.0173
     19  C13       14.5130   28.2970   34.0970 C.ar    0  non0        0.0015
     20  C17       15.3070   28.6520   31.8400 C.ar    0  non0        0.0600
     21  C14       15.7980   28.5720   34.5740 C.ar    0  non0        0.0001
     22  C15       16.8260   28.8840   33.6920 C.ar    0  non0        0.0015
     23  C16       16.6010   28.9310   32.3110 C.ar    0  non0        0.0172
@<TRIPOS>BOND
     1     2     1    1
     2     5     3    2
     3    13     1    1
     4    13    14    1
     5     1     3    1
     6     4     3    2
     7     3     6    1
     8    14    15    1
     9    15    16   ar
    10    15    20   ar
    11    16    17   ar
    12     6     7   ar
    13     6    12   ar
    14     7     8   ar
    15    12    11   ar
    16    20    23   ar
    17    20    18   ar
    18    17    18   ar
    19    23    22   ar
    20     8     9   ar
    21    18    19   ar
    22    11     9   ar
    23     9    10    1
    24    22    21   ar
    25    19    21   ar
@<TRIPOS>MOLECULE
85148861_Intermediate
 31 33 0 0 0
SMALL
GASTEIGER

@<TRIPOS>ATOM
      1  C7        17.3820   23.5720   35.7420 C.ar    0  non0       -0.0025
      2  C8        16.4040   24.5360   35.4920 C.ar    0  non0       -0.0026
      3  C9        16.3210   25.6660   36.3110 C.ar    0  non0       -0.0006
      4  C10       17.2100   25.8280   37.3770 C.ar    0  non0       -0.0039
      5  C24       18.1800   24.8510   37.6210 C.ar    0  non0       -0.0006
      6  C25       18.2700   23.7190   36.8080 C.ar    0  non0       -0.0026
      7  C11       17.1320   26.9900   38.2250 C.2     0  non0       -0.0190
      8  C12       18.2090   27.2600   39.2160 C.3     0  non0        0.0312
      9  C13       17.8680   28.3090   40.2970 C.3     0  non0        0.0344
     10  C14       17.2110   29.5300   39.6180 C.3     0  non0        0.0738
     11  C15       15.9130   29.1270   38.9100 C.2     0  non0        0.1732
     12  C16       16.0510   27.8570   38.1130 C.2     0  non0        0.0332
     13  O2        14.8660   29.7360   38.9600 O.2     0  non0       -0.2913
     14  C17       19.1110   28.7330   40.9910 C.ar    0  non0       -0.0215
     15  C18       19.1150   29.8810   41.8030 C.ar    0  non0       -0.0011
     16  C19       20.2880   30.2860   42.4470 C.ar    0  non0        0.0366
     17  C20       21.4650   29.5520   42.2900 C.ar    0  non0        0.1387
     18  C21       21.4620   28.4050   41.4870 C.ar    0  non0        0.0366
     19  C22       20.2950   27.9920   40.8410 C.ar    0  non0       -0.0011
     20  O3        22.6150   29.9410   42.9160 O.3     0  non0       -0.4714
     21  C23       22.3710   31.1180   43.6690 C.3     0  non0        0.2525
     22  C6        17.4710   22.3880   34.8640 C.3     0  non0        0.1194
     23  N1        18.8730   22.1060   34.5670 N.am    0  non0       -0.2665
     24  C5        19.4410   22.5940   33.4210 C.2     0  non0        0.4017
     25  O4        18.7740   23.2650   32.6470 O.2     0  non0       -0.2264
     26  H10       19.4660   21.5570   35.1720 H       0  non0        0.1531
     27  O1        20.7410   22.3340   33.1450 O.3     0  non0       -0.4419
     28  C2        21.5660   23.2660   33.8240 C.3     0  non0        0.1378
     29  C1        20.7830   24.5260   34.0960 C.3     0  non0        0.0437
     30  C3        22.7630   23.5930   32.9670 C.3     0  non0        0.0437
     31  C4        22.0300   22.6700   35.1290 C.3     0  non0        0.0437
@<TRIPOS>BOND
     1    25    24    2
     2    30    28    1
     3    27    24    1
     4    27    28    1
     5    24    23   am
     6    28    29    1
     7    28    31    1
     8    23    22    1
     9    23    26    1
    10    22     1    1
    11     2     1   ar
    12     2     3   ar
    13     1     6   ar
    14     3     4   ar
    15     6     5   ar
    16     4     5   ar
    17     4     7    1
    18    12     7    2
    19    12    11    1
    20     7     8    1
    21    11    13    2
    22    11    10    1
    23     8     9    1
    24    10     9    1
    25     9    14    1
    26    19    14   ar
    27    19    18   ar
    28    14    15   ar
    29    18    17   ar
    30    15    16   ar
    31    17    16   ar
    32    17    20    1
    33    20    21    1
@<TRIPOS>MOLECULE
85148861_Intermediate
 31 33 0 0 0
SMALL
GASTEIGER

@<TRIPOS>ATOM
      1  C7        25.8320   25.8080   36.9350 C.ar    0  non0       -0.0025
      2  C8        25.2820   26.6240   35.9450 C.ar    0  non0       -0.0026
      3  C9        23.8930   26.6950   35.7990 C.ar    0  non0       -0.0006
      4  C10       23.0590   25.9510   36.6370 C.ar    0  non0       -0.0039
      5  C24       23.6230   25.1310   37.6200 C.ar    0  non0       -0.0006
      6  C25       25.0090   25.0530   37.7720 C.ar    0  non0       -0.0026
      7  C11       21.6280   26.0200   36.4940 C.2     0  non0       -0.0190
      8  C12       20.7500   25.2800   37.4420 C.3     0  non0        0.0312
      9  C13       19.2770   25.1310   37.0030 C.3     0  non0        0.0344
     10  C14       18.7690   26.4960   36.4900 C.3     0  non0        0.0738
     11  C15       19.5870   26.9620   35.2810 C.2     0  non0        0.1732
     12  C16       21.0700   26.7800   35.4720 C.2     0  non0        0.0332
     13  O2        19.1310   27.4320   34.2620 O.2     0  non0       -0.2913
     14  C17       18.4520   24.6960   38.1600 C.ar    0  non0       -0.0215
     15  C18       17.0500   24.7390   38.0890 C.ar    0  non0       -0.0011
     16  C19       16.2750   24.3400   39.1830 C.ar    0  non0        0.0366
     17  C20       16.8890   23.8930   40.3540 C.ar    0  non0        0.1387
     18  C21       18.2870   23.8430   40.4240 C.ar    0  non0        0.0366
     19  C22       19.0690   24.2380   39.3370 C.ar    0  non0       -0.0011
     20  O3        16.1390   23.5010   41.4260 O.3     0  non0       -0.4714
     21  C23       16.9950   23.0710   42.4720 C.3     0  non0        0.2525
     22  C6        27.2980   25.7470   37.0900 C.3     0  non0        0.1194
     23  N1        27.6540   26.0450   38.4750 N.am    0  non0       -0.2665
     24  C5        28.0030   27.3200   38.8330 C.2     0  non0        0.4017
     25  O4        28.0180   28.2070   37.9930 O.2     0  non0       -0.2264
     26  H10       27.6580   25.3490   39.2060 H       0  non0        0.1531
     27  O1        28.3330   27.5970   40.1170 O.3     0  non0       -0.4419
     28  C2        27.1560   27.8610   40.8620 C.3     0  non0        0.1378
     29  C1        26.0060   28.1050   39.9170 C.3     0  non0        0.0437
     30  C3        27.3700   29.0830   41.7200 C.3     0  non0        0.0437
     31  C4        26.8410   26.6780   41.7420 C.3     0  non0        0.0437
@<TRIPOS>BOND
     1    13    11    2
     2    11    12    1
     3    11    10    1
     4    12     7    2
     5     3     2   ar
     6     3     4   ar
     7     2     1   ar
     8    10     9    1
     9     7     4    1
    10     7     8    1
    11     4     5   ar
    12     1    22    1
    13     1     6   ar
    14     9     8    1
    15     9    14    1
    16    22    23    1
    17     5     6   ar
    18    25    24    2
    19    15    14   ar
    20    15    16   ar
    21    14    19   ar
    22    23    24   am
    23    23    26    1
    24    24    27    1
    25    16    17   ar
    26    19    18   ar
    27    29    28    1
    28    27    28    1
    29    17    18   ar
    30    17    20    1
    31    28    30    1
    32    28    31    1
    33    20    21    1
@<TRIPOS>MOLECULE
85148861_Intermediate
 31 33 0 0 0
SMALL
GASTEIGER

@<TRIPOS>ATOM
      1  C7        17.5890   21.6290   35.1470 C.ar    0  non0       -0.0025
      2  C8        18.7680   21.0860   35.6610 C.ar    0  non0       -0.0026
      3  C9        19.7700   21.9350   36.1410 C.ar    0  non0       -0.0006
      4  C10       19.5950   23.3210   36.1030 C.ar    0  non0       -0.0039
      5  C24       18.4110   23.8520   35.5780 C.ar    0  non0       -0.0006
      6  C25       17.4060   23.0110   35.0960 C.ar    0  non0       -0.0026
      7  C11       20.6200   24.2030   36.5960 C.2     0  non0       -0.0190
      8  C12       20.3170   25.6420   36.8250 C.3     0  non0        0.0312
      9  C13       21.5460   26.5580   37.0110 C.3     0  non0        0.0344
     10  C14       22.5290   25.8810   37.9900 C.3     0  non0        0.0738
     11  C15       23.0100   24.5350   37.4350 C.2     0  non0        0.1732
     12  C16       21.8920   23.7060   36.8600 C.2     0  non0        0.0332
     13  O2        24.1560   24.1420   37.4380 O.2     0  non0       -0.2913
     14  C17       21.1140   27.8670   37.5650 C.ar    0  non0       -0.0215
     15  C18       19.7630   28.2490   37.5150 C.ar    0  non0       -0.0011
     16  C19       19.3590   29.4860   38.0270 C.ar    0  non0        0.0366
     17  C20       20.2960   30.3510   38.5960 C.ar    0  non0        0.1387
     18  C21       21.6420   29.9690   38.6520 C.ar    0  non0        0.0366
     19  C22       22.0540   28.7360   38.1450 C.ar    0  non0       -0.0011
     20  O3        19.9090   31.5610   39.0980 O.3     0  non0       -0.4714
     21  C23       21.0290   32.2160   39.6710 C.3     0  non0        0.2525
     22  C6        16.5320   20.7240   34.6540 C.3     0  non0        0.1194
     23  N1        15.2320   21.1930   35.1270 N.am    0  non0       -0.2665
     24  C5        14.6890   20.6680   36.2690 C.2     0  non0        0.4017
     25  O4        15.2930   19.8070   36.8920 O.2     0  non0       -0.2264
     26  H10       14.6920   21.9000   34.6490 H       0  non0        0.1531
     27  O1        13.4840   21.1020   36.7080 O.3     0  non0       -0.4419
     28  C2        13.6520   22.2990   37.4490 C.3     0  non0        0.1378
     29  C1        15.0550   22.3570   37.9990 C.3     0  non0        0.0437
     30  C3        12.6640   22.3270   38.5880 C.3     0  non0        0.0437
     31  C4        13.4150   23.4850   36.5490 C.3     0  non0        0.0437
@<TRIPOS>BOND
     1    26    23    1
     2    22    23    1
     3    22     1    1
     4     6     1   ar
     5     6     5   ar
     6    23    24   am
     7     1     2   ar
     8     5     4   ar
     9     2     3   ar
    10     4     3   ar
    11     4     7    1
    12    24    27    1
    13    24    25    2
    14    31    28    1
    15     7     8    1
    16     7    12    2
    17    27    28    1
    18     8     9    1
    19    12    11    1
    20     9    14    1
    21     9    10    1
    22    11    13    2
    23    11    10    1
    24    28    29    1
    25    28    30    1
    26    15    14   ar
    27    15    16   ar
    28    14    19   ar
    29    16    17   ar
    30    19    18   ar
    31    17    18   ar
    32    17    20    1
    33    20    21    1
@<TRIPOS>MOLECULE
24388208_Intermediate
 26 29 0 0 0
SMALL
GASTEIGER

@<TRIPOS>ATOM
      1  C4        19.3520   29.1810   36.9970 C.ar    0  non0        0.2160
      2  C5        18.0380   29.4800   37.3070 C.ar    0  non0        0.0231
      3  C6        16.8920   28.9660   36.5730 C.3     0  non0        0.0346
      4  C7        18.0970   30.3400   38.4180 C.ar    0  non0        0.0454
      5  C8        17.1630   30.9480   39.2530 C.2     0  non0        0.0797
      6  C9        17.5570   31.3590   40.5210 C.2     0  non0       -0.0097
      7  C10       18.9710   31.2970   41.0400 C.3     0  non0        0.0328
      8  C11       20.0210   31.1780   39.9040 C.3     0  non0        0.0690
      9  C12       19.4280   30.4530   38.7490 C.ar    0  non0        0.1243
     10  O2        20.2110   29.7740   37.8750 O.2     0  non0       -0.4515
     11  C13       16.3480   31.7080   41.1750 C.3     0  non0        0.1176
     12  N1        15.2910   31.5590   40.3490 N.3     0  non0       -0.1784
     13  N2        15.8180   31.2380   39.1400 N.pl3   0  non0       -0.1638
     14  C14       13.8820   31.6970   40.6220 C.3     0  non0        0.1204
     15  C15       13.2000   30.4020   40.3690 C.ar    0  non0       -0.0044
     16  C16       13.4800   29.2830   41.1720 C.ar    0  non0       -0.0020
     17  C17       12.8460   28.0610   40.9270 C.ar    0  non0        0.0111
     18  C18       11.9250   27.9450   39.8820 C.ar    0  non0        0.0577
     19  C19       11.6410   29.0590   39.0850 C.ar    0  non0        0.0111
     20 Cl         11.1280   26.4130   39.5630 Cl      0  non0       -0.0822
     21  C20       12.2660   30.2830   39.3240 C.ar    0  non0       -0.0020
     22  C3        19.8720   28.3930   35.9590 C.2     0  non0        0.3760
     23  O3        20.0070   28.8660   34.8420 O.2     0  non0       -0.2414
     24  O1        20.2240   27.1060   36.1980 O.3     0  non0       -0.4433
     25  C2        19.3040   26.2380   35.5560 C.3     0  non0        0.2090
     26  C1        18.4600   25.5390   36.6000 C.3     0  non0        0.0513
@<TRIPOS>BOND
     1    23    22    2
     2    25    24    1
     3    25    26    1
     4    22    24    1
     5    22     1    1
     6     3     2    1
     7     1     2   ar
     8     1    10   ar
     9     2     4   ar
    10    10     9   ar
    11     4     9   ar
    12     4     5    1
    13     9     8    1
    14    19    21   ar
    15    19    18   ar
    16    13     5    1
    17    13    12    1
    18     5     6    2
    19    21    15   ar
    20    20    18    1
    21    18    17   ar
    22     8     7    1
    23    12    14    1
    24    12    11    1
    25    15    14    1
    26    15    16   ar
    27     6     7    1
    28     6    11    1
    29    17    16   ar
@<TRIPOS>MOLECULE
24388208_Intermediate
 26 29 0 0 0
SMALL
GASTEIGER

@<TRIPOS>ATOM
      1  C4        19.9210   23.0190   34.8690 C.ar    0  non0        0.2160
      2  C5        19.7500   24.3700   34.6310 C.ar    0  non0        0.0231
      3  C6        18.8510   24.9100   33.6230 C.3     0  non0        0.0346
      4  C7        20.6000   25.0260   35.5380 C.ar    0  non0        0.0454
      5  C8        20.8610   26.3530   35.8720 C.2     0  non0        0.0797
      6  C9        21.4120   26.6410   37.1150 C.2     0  non0       -0.0097
      7  C10       21.8590   25.6040   38.1140 C.3     0  non0        0.0328
      8  C11       22.0900   24.2120   37.4690 C.3     0  non0        0.0690
      9  C12       21.1780   24.0420   36.3070 C.ar    0  non0        0.1243
     10  O2        20.7970   22.8080   35.8940 O.2     0  non0       -0.4515
     11  C13       21.3300   28.0530   37.2250 C.3     0  non0        0.1176
     12  N1        20.8020   28.5940   36.1060 N.3     0  non0       -0.1784
     13  N2        20.6600   27.5610   35.2360 N.pl3   0  non0       -0.1638
     14  C14       20.4450   29.9620   35.8250 C.3     0  non0        0.1204
     15  C15       18.9880   30.0460   35.5490 C.ar    0  non0       -0.0044
     16  C16       18.0560   29.7700   36.5630 C.ar    0  non0       -0.0020
     17  C17       16.6840   29.8380   36.3000 C.ar    0  non0        0.0111
     18  C18       16.2300   30.1860   35.0250 C.ar    0  non0        0.0577
     19  C19       17.1570   30.4660   34.0150 C.ar    0  non0        0.0111
     20 Cl         14.5100   30.2690   34.6830 Cl      0  non0       -0.0822
     21  C20       18.5280   30.4040   34.2690 C.ar    0  non0       -0.0020
     22  C3        19.3430   21.9140   34.2270 C.2     0  non0        0.3760
     23  O3        19.8090   21.5050   33.1750 O.2     0  non0       -0.2414
     24  O1        18.2660   21.3010   34.7760 O.3     0  non0       -0.4433
     25  C2        17.1170   21.5700   33.9890 C.3     0  non0        0.2090
     26  C1        16.1900   22.4920   34.7520 C.3     0  non0        0.0513
@<TRIPOS>BOND
     1    23    22    2
     2     3     2    1
     3    25    26    1
     4    25    24    1
     5    19    21   ar
     6    19    18   ar
     7    22    24    1
     8    22     1    1
     9    21    15   ar
    10     2     1   ar
    11     2     4   ar
    12    20    18    1
    13     1    10   ar
    14    18    17   ar
    15    13     5    1
    16    13    12    1
    17     4     5    1
    18     4     9   ar
    19    15    14    1
    20    15    16   ar
    21    14    12    1
    22     5     6    2
    23    10     9   ar
    24    12    11    1
    25    17    16   ar
    26     9     8    1
    27     6    11    1
    28     6     7    1
    29     8     7    1
@<TRIPOS>MOLECULE
24388208_Intermediate
 26 29 0 0 0
SMALL
GASTEIGER

@<TRIPOS>ATOM
      1  C4        22.6120   21.8620   35.5930 C.ar    0  non0        0.2160
      2  C5        22.0460   23.1220   35.5440 C.ar    0  non0        0.0231
      3  C6        22.3290   24.1010   34.5050 C.3     0  non0        0.0346
      4  C7        21.2020   23.2030   36.6650 C.ar    0  non0        0.0454
      5  C8        20.3060   24.1430   37.1680 C.2     0  non0        0.0797
      6  C9        19.3040   23.7250   38.0350 C.2     0  non0       -0.0097
      7  C10       19.1660   22.3240   38.5730 C.3     0  non0        0.0328
      8  C11       20.4810   21.5080   38.4600 C.3     0  non0        0.0690
      9  C12       21.2590   21.9730   37.2800 C.ar    0  non0        0.1243
     10  O2        22.1370   21.1510   36.6550 O.2     0  non0       -0.4515
     11  C13       18.4500   24.8510   38.1640 C.3     0  non0        0.1176
     12  N1        18.9220   25.8990   37.4560 N.3     0  non0       -0.1784
     13  N2        20.1280   25.4980   36.9760 N.pl3   0  non0       -0.1638
     14  C14       18.3310   27.1920   37.2210 C.3     0  non0        0.1204
     15  C15       18.1120   27.3780   35.7630 C.ar    0  non0       -0.0044
     16  C16       17.1860   26.5760   35.0760 C.ar    0  non0       -0.0020
     17  C17       16.9880   26.7430   33.7020 C.ar    0  non0        0.0111
     18  C18       17.7090   27.7150   33.0020 C.ar    0  non0        0.0577
     19  C19       18.6270   28.5190   33.6860 C.ar    0  non0        0.0111
     20 Cl         17.4710   27.9290   31.2760 Cl      0  non0       -0.0822
     21  C20       18.8290   28.3610   35.0580 C.ar    0  non0       -0.0020
     22  C3        23.5530   21.2670   34.7390 C.2     0  non0        0.3760
     23  O3        24.7420   21.5040   34.8800 O.2     0  non0       -0.2414
     24  O1        23.1400   20.4290   33.7560 O.3     0  non0       -0.4433
     25  C2        23.3180   21.0550   32.4960 C.3     0  non0        0.2090
     26  C1        21.9660   21.3950   31.9070 C.3     0  non0        0.0513
@<TRIPOS>BOND
     1    20    18    1
     2    26    25    1
     3    25    24    1
     4    18    19   ar
     5    18    17   ar
     6    19    21   ar
     7    17    16   ar
     8    24    22    1
     9     3     2    1
    10    22    23    2
    11    22     1    1
    12    21    15   ar
    13    16    15   ar
    14     2     1   ar
    15     2     4   ar
    16     1    10   ar
    17    15    14    1
    18    10     9   ar
    19     4     5    1
    20     4     9   ar
    21    13     5    1
    22    13    12    1
    23     5     6    2
    24    14    12    1
    25     9     8    1
    26    12    11    1
    27     6    11    1
    28     6     7    1
    29     8     7    1
@<TRIPOS>MOLECULE
24821332_Intermediate
 31 33 0 0 0
SMALL
GASTEIGER

@<TRIPOS>ATOM
      1  C8        22.5490   24.4370   39.5220 C.ar    0  non0        0.2811
      2  N2        21.9410   24.7680   38.4510 N.ar    0  non0       -0.1876
      3  C9        20.6430   24.9010   38.8950 C.ar    0  non0        0.2034
      4  N4        20.4910   24.6550   40.2080 N.ar    0  non0       -0.0559
      5  O5        21.7770   24.3390   40.6390 O.2     0  non0       -0.3331
      6  C7        23.9910   24.1790   39.5520 C.3     0  non0        0.2924
      7  O2        24.5440   24.4310   38.2710 O.3     0  non0       -0.4638
      8  C6        25.4060   25.4880   38.3450 C.ar    0  non0        0.1570
      9  C5        26.6490   25.3510   38.9620 C.ar    0  non0        0.0385
     10  C4        27.5300   26.4350   39.0460 C.ar    0  non0        0.0032
     11  C3        27.1560   27.6670   38.5030 C.ar    0  non0        0.0018
     12  C2        25.9120   27.8140   37.8790 C.ar    0  non0        0.0225
     13  C1        25.0460   26.7220   37.7990 C.ar    0  non0        0.1200
     14  N1        23.7730   26.8770   37.1450 N.4     0  non0       -0.2082
     15  O6        23.6910   28.1990   36.5530 O.3     0  non0       -0.0828
     16  H2        23.0360   26.7630   37.8260 H       0  non0        0.2035
     17  O1        23.6360   25.8750   36.1070 O.3     0  non0       -0.2822
     18  H1        24.4880   25.7290   35.6890 H       0  non0        0.2447
     19  C10       19.5500   25.2470   38.1540 C.ar    0  non0        0.0393
     20  C11       19.6710   25.4570   36.7680 C.ar    0  non0        0.0063
     21  C12       18.5540   25.8260   36.0120 C.ar    0  non0        0.0370
     22  C13       17.3090   25.9840   36.6260 C.ar    0  non0        0.1393
     23  C14       17.1880   25.7690   38.0030 C.ar    0  non0        0.0370
     24  C15       18.2960   25.3990   38.7680 C.ar    0  non0        0.0063
     25  O3        16.2150   26.3440   35.8920 O.3     0  non0       -0.4656
     26  C16       16.5250   27.4870   35.1110 C.3     0  non0        0.2891
     27  C17       16.2460   28.7210   35.9030 C.2     0  non0        0.2639
     28  N3        17.2510   29.6180   36.1500 N.am    0  non0       -0.3258
     29  H15       17.5320   29.8120   37.1010 H       0  non0        0.1451
     30  H16       17.7110   30.0850   35.3820 H       0  non0        0.1451
     31  O4        15.1210   28.9310   36.3270 O.2     0  non0       -0.2713
@<TRIPOS>BOND
     1    26    25    1
     2    26    27    1
     3    30    28    1
     4    18    17    1
     5    25    22    1
     6    27    28   am
     7    27    31    2
     8    21    22   ar
     9    21    20   ar
    10    17    14    1
    11    28    29    1
    12    15    14    1
    13    22    23   ar
    14    20    19   ar
    15    14    13    1
    16    14    16    1
    17    13    12   ar
    18    13     8   ar
    19    12    11   ar
    20    23    24   ar
    21    19    24   ar
    22    19     3    1
    23     7     8    1
    24     7     6    1
    25     8     9   ar
    26     2     3   ar
    27     2     1   ar
    28    11    10   ar
    29     3     4   ar
    30     9    10   ar
    31     1     6    1
    32     1     5   ar
    33     4     5   ar
@<TRIPOS>MOLECULE
24821332_Intermediate
 31 33 0 0 0
SMALL
GASTEIGER

@<TRIPOS>ATOM
      1  C8        17.0030   28.5800   37.8920 C.ar    0  non0        0.2811
      2  N2        17.4130   28.3690   36.7030 N.ar    0  non0       -0.1876
      3  C9        18.7790   28.4970   36.8520 C.ar    0  non0        0.2034
      4  N4        19.1630   28.7770   38.1080 N.ar    0  non0       -0.0559
      5  O5        17.9660   28.8360   38.8190 O.2     0  non0       -0.3331
      6  C7        15.5800   28.5500   38.2420 C.3     0  non0        0.2924
      7  O2        14.8150   28.2530   37.0860 O.3     0  non0       -0.4638
      8  C6        14.1410   27.0790   37.2740 C.ar    0  non0        0.1570
      9  C5        13.0240   27.0240   38.1060 C.ar    0  non0        0.0385
     10  C4        12.3370   25.8200   38.3040 C.ar    0  non0        0.0032
     11  C3        12.7800   24.6630   37.6580 C.ar    0  non0        0.0018
     12  C2        13.9000   24.7080   36.8200 C.ar    0  non0        0.0225
     13  C1        14.5700   25.9170   36.6280 C.ar    0  non0        0.1200
     14  N1        15.7140   25.9590   35.7530 N.4     0  non0       -0.2082
     15  O6        15.8750   24.6710   35.1060 O.3     0  non0       -0.0828
     16  H2        16.5380   26.1730   36.2960 H       0  non0        0.2035
     17  O1        15.5160   26.9830   34.7460 O.3     0  non0       -0.2822
     18  H1        14.6070   26.9590   34.4390 H       0  non0        0.2447
     19  C10       19.7280   28.3670   35.8800 C.ar    0  non0        0.0393
     20  C11       19.3510   28.0910   34.5520 C.ar    0  non0        0.0063
     21  C12       20.3250   27.9450   33.5600 C.ar    0  non0        0.0370
     22  C13       21.6800   28.0760   33.8780 C.ar    0  non0        0.1393
     23  C14       22.0540   28.3560   35.1970 C.ar    0  non0        0.0370
     24  C15       21.0900   28.5060   36.1960 C.ar    0  non0        0.0063
     25  O3        22.6360   27.9340   32.9130 O.3     0  non0       -0.4656
     26  C16       22.4260   26.7160   32.2160 C.3     0  non0        0.2891
     27  C17       23.1770   25.6190   32.8930 C.2     0  non0        0.2639
     28  N3        22.5090   24.5190   33.3620 N.am    0  non0       -0.3258
     29  H15       22.5210   24.3030   34.3490 H       0  non0        0.1451
     30  H16       22.0050   23.9240   32.7210 H       0  non0        0.1451
     31  O4        24.3880   25.7020   33.0260 O.2     0  non0       -0.2713
@<TRIPOS>BOND
     1    26    27    1
     2    26    25    1
     3    30    28    1
     4    27    31    2
     5    27    28   am
     6    25    22    1
     7    28    29    1
     8    21    22   ar
     9    21    20   ar
    10    22    23   ar
    11    18    17    1
    12    20    19   ar
    13    17    14    1
    14    15    14    1
    15    23    24   ar
    16    14    16    1
    17    14    13    1
    18    19    24   ar
    19    19     3    1
    20    13    12   ar
    21    13     8   ar
    22     2     3   ar
    23     2     1   ar
    24    12    11   ar
    25     3     4   ar
    26     7     8    1
    27     7     6    1
    28     8     9   ar
    29    11    10   ar
    30     1     6    1
    31     1     5   ar
    32     9    10   ar
    33     4     5   ar
@<TRIPOS>MOLECULE
24821332_Intermediate
 31 33 0 0 0
SMALL
GASTEIGER

@<TRIPOS>ATOM
      1  C8        18.0650   27.4810   37.4270 C.ar    0  non0        0.2811
      2  N2        19.0710   28.1770   37.7880 N.ar    0  non0       -0.1876
      3  C9        19.6550   27.3580   38.7320 C.ar    0  non0        0.2034
      4  N4        19.0020   26.1990   38.9210 N.ar    0  non0       -0.0559
      5  O5        17.9250   26.2750   38.0420 O.2     0  non0       -0.3331
      6  C7        17.1170   27.9490   36.4130 C.3     0  non0        0.2924
      7  O2        17.5360   29.2100   35.9200 O.3     0  non0       -0.4638
      8  C6        17.8540   29.1000   34.5960 C.ar    0  non0        0.1570
      9  C5        16.8550   28.9620   33.6330 C.ar    0  non0        0.0385
     10  C4        17.1800   28.8420   32.2760 C.ar    0  non0        0.0032
     11  C3        18.5220   28.8620   31.8880 C.ar    0  non0        0.0018
     12  C2        19.5320   29.0030   32.8460 C.ar    0  non0        0.0225
     13  C1        19.1910   29.1270   34.1950 C.ar    0  non0        0.1200
     14  N1        20.2350   29.2850   35.1740 N.4     0  non0       -0.2082
     15  O6        21.5130   29.4180   34.5020 O.3     0  non0       -0.0828
     16  H2        20.2490   28.4740   35.7760 H       0  non0        0.2035
     17  O1        19.9810   30.4720   35.9660 O.3     0  non0       -0.2822
     18  H1        20.8150   30.8760   36.2150 H       0  non0        0.2447
     19  C10       20.7850   27.6100   39.4550 C.ar    0  non0        0.0393
     20  C11       21.5990   28.7130   39.1370 C.ar    0  non0        0.0063
     21  C12       22.7640   28.9610   39.8690 C.ar    0  non0        0.0370
     22  C13       23.1260   28.1200   40.9250 C.ar    0  non0        0.1393
     23  C14       22.3130   27.0270   41.2440 C.ar    0  non0        0.0370
     24  C15       21.1460   26.7700   40.5210 C.ar    0  non0        0.0063
     25  O3        24.2630   28.3580   41.6430 O.3     0  non0       -0.4656
     26  C16       25.3580   28.5140   40.7560 C.3     0  non0        0.2891
     27  C17       25.9770   27.1830   40.4900 C.2     0  non0        0.2639
     28  N3        26.0520   26.7060   39.2080 N.am    0  non0       -0.3258
     29  H15       25.5790   25.8490   38.9590 H       0  non0        0.1451
     30  H16       26.5810   27.2110   38.5120 H       0  non0        0.1451
     31  O4        26.4190   26.5210   41.4150 O.2     0  non0       -0.2713
@<TRIPOS>BOND
     1    11    10   ar
     2    11    12   ar
     3    10     9   ar
     4    12    13   ar
     5     9     8   ar
     6    13     8   ar
     7    13    14    1
     8    15    14    1
     9     8     7    1
    10    14    16    1
    11    14    17    1
    12     7     6    1
    13    17    18    1
    14     6     1    1
    15     1     2   ar
    16     1     5   ar
    17     2     3   ar
    18     5     4   ar
    19    30    28    1
    20     3     4   ar
    21     3    19    1
    22    29    28    1
    23    20    19   ar
    24    20    21   ar
    25    28    27   am
    26    19    24   ar
    27    21    22   ar
    28    27    26    1
    29    27    31    2
    30    24    23   ar
    31    26    25    1
    32    22    23   ar
    33    22    25    1
@<TRIPOS>MOLECULE
4245853_Intermediate
 32 36 0 0 0
SMALL
GASTEIGER

@<TRIPOS>ATOM
      1  C1        23.4200   29.0960   35.6850 C.3     0  non0        0.0309
      2  C2        22.8090   29.3300   37.0080 C.ar    0  non0       -0.0205
      3  C3        21.4380   29.5950   37.1560 C.ar    0  non0       -0.0119
      4  C14       20.9190   29.8280   38.4190 C.ar    0  non0        0.0568
      5  C15       19.4730   30.1100   38.5200 C.3     0  non0        0.0518
      6  N2        21.6160   29.8210   39.5620 N.ar    0  non0       -0.2312
      7  C16       22.9320   29.5520   39.4080 C.ar    0  non0        0.1641
      8  C17       23.5740   29.3010   38.1980 C.ar    0  non0        0.0468
      9  C18       24.9250   29.0640   38.5520 C.ar    0  non0        0.0820
     10  C19       26.0470   28.7420   37.6850 C.3     0  non0        0.0540
     11  N3        25.1300   29.1650   39.8670 N.ar    0  non0       -0.1681
     12  N4        23.9070   29.4670   40.4020 N.ar    0  non0       -0.2125
     13  C4        20.5510   29.6250   35.9760 C.3     0  non0        0.0368
     14  C5        20.3920   28.2170   35.4250 C.3     0  non0        0.0900
     15  C6        19.3260   27.5030   36.1870 C.2     0  non0        0.2260
     16  N1        19.6550   26.4580   37.0080 N.am    0  non0       -0.2792
     17  C7        18.6380   25.7360   37.7690 C.3     0  non0        0.0984
     18  C11       21.0390   26.0140   37.1610 C.3     0  non0        0.0984
     19  C8        18.9840   25.8630   39.2420 C.3     0  non0        0.0777
     20  C9        20.4120   25.3970   39.5100 C.3     0  non0        0.1905
     21  C10       21.4070   26.1440   38.6280 C.3     0  non0        0.0777
     22  O1        20.4970   23.9910   39.2430 O.3     0  non0       -0.3315
     23  O2        20.7420   25.6480   40.8790 O.3     0  non0       -0.3315
     24  C12       21.1330   23.4320   40.3980 C.3     0  non0        0.1767
     25  C13       20.7250   24.3630   41.5080 C.3     0  non0        0.1767
     26  O3        18.1600   27.8520   36.0780 O.2     0  non0       -0.2749
     27  C20       23.6680   29.6670   41.8090 C.ar    0  non0        0.0844
     28  C21       23.2740   28.5900   42.6220 C.ar    0  non0        0.0192
     29  C22       23.0290   28.7900   43.9850 C.ar    0  non0        0.0015
     30  C23       23.1830   30.0580   44.5490 C.ar    0  non0        0.0001
     31  C24       23.5820   31.1290   43.7400 C.ar    0  non0        0.0015
     32  C25       23.8290   30.9410   42.3800 C.ar    0  non0        0.0192
@<TRIPOS>BOND
     1    14    13    1
     2    14    15    1
     3     1     2    1
     4    13     3    1
     5    26    15    2
     6    15    16   am
     7     2     3   ar
     8     2     8   ar
     9    16    18    1
    10    16    17    1
    11     3     4   ar
    12    18    21    1
    13    10     9    1
    14    17    19    1
    15     8     9   ar
    16     8     7   ar
    17     4     5    1
    18     4     6   ar
    19     9    11   ar
    20    21    20    1
    21    19    20    1
    22    22    20    1
    23    22    24    1
    24     7     6   ar
    25     7    12   ar
    26    20    23    1
    27    11    12   ar
    28    24    25    1
    29    12    27    1
    30    23    25    1
    31    27    32   ar
    32    27    28   ar
    33    32    31   ar
    34    28    29   ar
    35    31    30   ar
    36    29    30   ar
@<TRIPOS>MOLECULE
4245853_Intermediate
 32 36 0 0 0
SMALL
GASTEIGER

@<TRIPOS>ATOM
      1  C1        17.7560   23.4650   32.6370 C.3     0  non0        0.0309
      2  C2        16.5230   24.2770   32.6200 C.ar    0  non0       -0.0205
      3  C3        15.7420   24.4630   33.7710 C.ar    0  non0       -0.0119
      4  C14       14.5820   25.2160   33.6960 C.ar    0  non0        0.0568
      5  C15       13.7910   25.3750   34.9330 C.3     0  non0        0.0518
      6  N2        14.1120   25.8170   32.5960 N.ar    0  non0       -0.2312
      7  C16       14.8810   25.6420   31.4970 C.ar    0  non0        0.1641
      8  C17       16.0640   24.9100   31.4410 C.ar    0  non0        0.0468
      9  C18       16.4980   25.0330   30.0980 C.ar    0  non0        0.0820
     10  C19       17.6880   24.4750   29.4750 C.3     0  non0        0.0540
     11  N3        15.6630   25.7670   29.3610 N.ar    0  non0       -0.1681
     12  N4        14.6630   26.1460   30.2150 N.ar    0  non0       -0.2125
     13  C4        16.1490   23.8600   35.0570 C.3     0  non0        0.0368
     14  C5        17.3880   24.5690   35.5790 C.3     0  non0        0.0900
     15  C6        16.9830   25.8060   36.3070 C.2     0  non0        0.2260
     16  N1        17.2790   27.0360   35.7860 N.am    0  non0       -0.2792
     17  C7        16.8980   28.2680   36.4710 C.3     0  non0        0.0984
     18  C11       17.9920   27.1750   34.5160 C.3     0  non0        0.0984
     19  C8        15.9960   29.0580   35.5390 C.3     0  non0        0.0777
     20  C9        16.6660   29.2790   34.1870 C.3     0  non0        0.1905
     21  C10       17.1000   27.9540   33.5670 C.3     0  non0        0.0777
     22  O1        17.8120   30.1190   34.3700 O.3     0  non0       -0.3315
     23  O2        15.7410   29.9130   33.2990 O.3     0  non0       -0.3315
     24  C12       17.6810   31.1460   33.3800 C.3     0  non0        0.1767
     25  C13       16.1930   31.2660   33.1940 C.3     0  non0        0.1767
     26  O3        16.3860   25.7210   37.3710 O.2     0  non0       -0.2749
     27  C20       13.5370   26.9590   29.8300 C.ar    0  non0        0.0844
     28  C21       12.3690   26.3610   29.3260 C.ar    0  non0        0.0192
     29  C22       11.2820   27.1530   28.9410 C.ar    0  non0        0.0015
     30  C23       11.3470   28.5430   29.0600 C.ar    0  non0        0.0001
     31  C24       12.5080   29.1380   29.5680 C.ar    0  non0        0.0015
     32  C25       13.5980   28.3570   29.9570 C.ar    0  non0        0.0192
@<TRIPOS>BOND
     1    29    30   ar
     2    29    28   ar
     3    30    31   ar
     4    28    27   ar
     5    11     9   ar
     6    11    12   ar
     7    10     9    1
     8    31    32   ar
     9    27    32   ar
    10    27    12    1
    11     9     8   ar
    12    12     7   ar
    13     8     7   ar
    14     8     2   ar
    15     7     6   ar
    16     6     4   ar
    17     2     1    1
    18     2     3   ar
    19    25    23    1
    20    25    24    1
    21    23    20    1
    22    24    22    1
    23    21    20    1
    24    21    18    1
    25     4     3   ar
    26     4     5    1
    27     3    13    1
    28    20    22    1
    29    20    19    1
    30    18    16    1
    31    13    14    1
    32    19    17    1
    33    14    15    1
    34    16    15   am
    35    16    17    1
    36    15    26    2
@<TRIPOS>MOLECULE
4245853_Intermediate
 32 36 0 0 0
SMALL
GASTEIGER

@<TRIPOS>ATOM
      1  C1        20.1680   31.2840   34.4570 C.3     0  non0        0.0309
      2  C2        19.2430   30.8190   35.5090 C.ar    0  non0       -0.0205
      3  C3        18.0200   30.2020   35.2010 C.ar    0  non0       -0.0119
      4  C14       17.1780   29.8010   36.2260 C.ar    0  non0        0.0568
      5  C15       15.9000   29.1660   35.8490 C.3     0  non0        0.0518
      6  N2        17.4230   29.9420   37.5350 N.ar    0  non0       -0.2312
      7  C16       18.6090   30.5240   37.8190 C.ar    0  non0        0.1641
      8  C17       19.5400   30.9700   36.8830 C.ar    0  non0        0.0468
      9  C18       20.6090   31.4840   37.6590 C.ar    0  non0        0.0820
     10  C19       21.8580   32.0730   37.2040 C.3     0  non0        0.0540
     11  N3        20.3770   31.3860   38.9690 N.ar    0  non0       -0.1681
     12  N4        19.1470   30.7970   39.0760 N.ar    0  non0       -0.2125
     13  C4        17.6280   29.9790   33.7940 C.3     0  non0        0.0368
     14  C5        18.5240   28.9150   33.1810 C.3     0  non0        0.0900
     15  C6        17.9910   27.5630   33.5150 C.2     0  non0        0.2260
     16  N1        18.6820   26.7450   34.3680 N.am    0  non0       -0.2792
     17  C7        18.1900   25.4150   34.7170 C.3     0  non0        0.0984
     18  C11       19.9470   27.1640   34.9690 C.3     0  non0        0.0984
     19  C8        18.0020   25.3700   36.2240 C.3     0  non0        0.0777
     20  C9        19.2850   25.7710   36.9460 C.3     0  non0        0.1905
     21  C10       19.7750   27.1360   36.4760 C.3     0  non0        0.0777
     22  O1        20.2900   24.7840   36.6830 O.3     0  non0       -0.3315
     23  O2        19.0330   25.8390   38.3530 O.3     0  non0       -0.3315
     24  C12       20.8240   24.4470   37.9690 C.3     0  non0        0.1767
     25  C13       19.6650   24.6790   38.9010 C.3     0  non0        0.1767
     26  O3        16.9360   27.1850   33.0270 O.2     0  non0       -0.2749
     27  C20       18.4990   30.5000   40.3300 C.ar    0  non0        0.0844
     28  C21       18.6800   29.2480   40.9420 C.ar    0  non0        0.0192
     29  C22       18.0400   28.9570   42.1520 C.ar    0  non0        0.0015
     30  C23       17.2240   29.9110   42.7630 C.ar    0  non0        0.0001
     31  C24       17.0490   31.1600   42.1560 C.ar    0  non0        0.0015
     32  C25       17.6830   31.4610   40.9500 C.ar    0  non0        0.0192
@<TRIPOS>BOND
     1    26    15    2
     2    14    15    1
     3    14    13    1
     4    15    16   am
     5    13     3    1
     6    16    17    1
     7    16    18    1
     8     1     2    1
     9    17    19    1
    10    18    21    1
    11     3     2   ar
    12     3     4   ar
    13     2     8   ar
    14     5     4    1
    15    19    20    1
    16     4     6   ar
    17    21    20    1
    18    22    20    1
    19    22    24    1
    20     8     9   ar
    21     8     7   ar
    22    20    23    1
    23    10     9    1
    24     6     7   ar
    25     9    11   ar
    26     7    12   ar
    27    24    25    1
    28    23    25    1
    29    11    12   ar
    30    12    27    1
    31    27    28   ar
    32    27    32   ar
    33    28    29   ar
    34    32    31   ar
    35    29    30   ar
    36    31    30   ar
@<TRIPOS>MOLECULE
89850584_Intermediate
 38 41 0 0 0
SMALL
GASTEIGER

@<TRIPOS>ATOM
      1  C8        17.1690   24.8240   33.3860 C.ar    0  non0        0.1224
      2  C9        16.3550   24.2110   34.3420 C.ar    0  non0        0.0230
      3  C10       16.6430   22.9090   34.7640 C.ar    0  non0        0.0382
      4  C11       17.7380   22.2220   34.2300 C.ar    0  non0        0.1399
      5  C12       18.5420   22.8470   33.2690 C.ar    0  non0        0.1105
      6  C13       18.2590   24.1450   32.8400 C.ar    0  non0        0.0294
      7  C14       19.6710   22.1320   32.7190 C.2     0  non0        0.3446
      8  O1        19.7840   22.0080   31.5080 O.2     0  non0       -0.2448
      9  O2        20.6040   21.6010   33.5440 O.3     0  non0       -0.4368
     10  C15       21.3830   22.6410   34.1130 C.3     0  non0        0.2769
     11  C16       20.9770   22.8410   35.5360 C.2     0  non0        0.2171
     12  O5        20.6910   21.8780   36.2320 O.2     0  non0       -0.2874
     13  C17       20.9190   24.1860   36.0950 C.ar    0  non0        0.0399
     14  C18       22.0690   24.7660   36.6600 C.ar    0  non0        0.0062
     15  C19       22.0150   26.0670   37.1660 C.ar    0  non0        0.0383
     16  C20       20.8220   26.7910   37.1220 C.ar    0  non0        0.1526
     17  C21       19.6750   26.2080   36.5780 C.ar    0  non0        0.0849
     18  O3        20.8670   28.0470   37.6520 O.3     0  non0       -0.4643
     19  C22       19.7140   24.9120   36.0690 C.ar    0  non0        0.0207
     20  N2        18.4740   26.9150   36.5510 N.am    0  non0       -0.2785
     21  C23       18.3800   28.1930   37.0200 C.2     0  non0        0.2707
     22  H17       17.6410   26.4840   36.1760 H       0  non0        0.1551
     23  C24       19.6780   28.8120   37.5340 C.3     0  non0        0.2897
     24  O4        17.3150   28.7740   37.0130 O.2     0  non0       -0.2707
     25  O6        18.0110   21.0180   34.6180 O.3     0  non0       -0.5053
     26  H20       18.9190   20.9800   34.9280 H       0  non0        0.2922
     27  S1        16.8080   26.4680   32.8730 S.O2    0  non0        0.0605
     28  O7        16.3250   27.3640   34.1850 O.2     0  non0       -0.1530
     29  O8        15.5900   26.4400   31.7430 O.2     0  non0       -0.1530
     30  N1        18.1590   27.1460   32.2090 N.3     0  non0       -0.1749
     31  H8        18.6070   26.9730   31.3210 H       0  non0        0.1492
     32  C1        18.7120   28.1350   33.1300 C.3     0  non0        0.1177
     33  C2        20.1480   27.8410   33.3690 C.ar    0  non0       -0.0048
     34  C3        20.7000   26.6130   32.9650 C.ar    0  non0       -0.0029
     35  C4        22.0500   26.3340   33.2010 C.ar    0  non0       -0.0003
     36  C5        22.8620   27.2750   33.8390 C.ar    0  non0       -0.0000
     37  C6        22.3150   28.5010   34.2370 C.ar    0  non0       -0.0003
     38  C7        20.9700   28.7890   34.0030 C.ar    0  non0       -0.0029
@<TRIPOS>BOND
     1    31    30    1
     2     8     7    2
     3    29    27    2
     4    30    27    1
     5    30    32    1
     6     7     5    1
     7     7     9    1
     8     6     5   ar
     9     6     1   ar
    10    27     1    1
    11    27    28    2
    12    34    35   ar
    13    34    33   ar
    14    32    33    1
    15    35    36   ar
    16     5     4   ar
    17    33    38   ar
    18     1     2   ar
    19     9    10    1
    20    36    37   ar
    21    38    37   ar
    22    10    11    1
    23     4    25    1
    24     4     3   ar
    25     2     3   ar
    26    25    26    1
    27    11    13    1
    28    11    12    2
    29    19    13   ar
    30    19    17   ar
    31    13    14   ar
    32    22    20    1
    33    20    17    1
    34    20    21   am
    35    17    16   ar
    36    14    15   ar
    37    24    21    2
    38    21    23    1
    39    16    15   ar
    40    16    18    1
    41    23    18    1
@<TRIPOS>MOLECULE
89850584_Intermediate
 38 41 0 0 0
SMALL
GASTEIGER

@<TRIPOS>ATOM
      1  C8        19.0890   23.5060   35.1260 C.ar    0  non0        0.1224
      2  C9        17.7590   23.1480   34.8930 C.ar    0  non0        0.0230
      3  C10       16.7290   23.9810   35.3450 C.ar    0  non0        0.0382
      4  C11       17.0290   25.1630   36.0290 C.ar    0  non0        0.1399
      5  C12       18.3670   25.5060   36.2600 C.ar    0  non0        0.1105
      6  C13       19.4000   24.6790   35.8150 C.ar    0  non0        0.0294
      7  C14       18.6720   26.7280   36.9690 C.2     0  non0        0.3446
      8  O1        19.3930   26.6970   37.9560 O.2     0  non0       -0.2448
      9  O2        18.1600   27.9050   36.5400 O.3     0  non0       -0.4368
     10  C15       18.8130   28.3000   35.3450 C.3     0  non0        0.2769
     11  C16       17.9050   28.0630   34.1830 C.2     0  non0        0.2171
     12  O5        16.7070   28.2780   34.2900 O.2     0  non0       -0.2874
     13  C17       18.4470   27.5730   32.9230 C.ar    0  non0        0.0399
     14  C18       18.9450   28.4780   31.9670 C.ar    0  non0        0.0062
     15  C19       19.4920   28.0010   30.7750 C.ar    0  non0        0.0383
     16  C20       19.5390   26.6280   30.5210 C.ar    0  non0        0.1526
     17  C21       19.0270   25.7300   31.4600 C.ar    0  non0        0.0849
     18  O3        20.0790   26.2620   29.3230 O.3     0  non0       -0.4643
     19  C22       18.4790   26.1920   32.6550 C.ar    0  non0        0.0207
     20  N2        19.0480   24.3600   31.2050 N.am    0  non0       -0.2785
     21  C23       19.5860   23.8500   30.0600 C.2     0  non0        0.2707
     22  H17       18.6590   23.7140   31.8760 H       0  non0        0.1551
     23  C24       20.2010   24.8660   29.1000 C.3     0  non0        0.2897
     24  O4        19.5630   22.6550   29.8490 O.2     0  non0       -0.2707
     25  O6        16.0820   25.9390   36.4470 O.3     0  non0       -0.5053
     26  H20       16.2650   26.8420   36.1770 H       0  non0        0.2922
     27  S1        20.3770   22.4590   34.5410 S.O2    0  non0        0.0605
     28  O7        19.9760   21.8730   33.0400 O.2     0  non0       -0.1530
     29  O8        20.5810   21.1900   35.5940 O.2     0  non0       -0.1530
     30  N1        21.7820   23.3210   34.4390 N.3     0  non0       -0.1749
     31  H8        22.3950   23.6590   35.1670 H       0  non0        0.1492
     32  C1        22.0950   23.5800   33.0370 C.3     0  non0        0.1177
     33  C2        22.3150   25.0360   32.8380 C.ar    0  non0       -0.0048
     34  C3        21.9510   25.9530   33.8390 C.ar    0  non0       -0.0029
     35  C4        22.1480   27.3240   33.6460 C.ar    0  non0       -0.0003
     36  C5        22.7120   27.7930   32.4560 C.ar    0  non0       -0.0000
     37  C6        23.0800   26.8800   31.4610 C.ar    0  non0       -0.0003
     38  C7        22.8890   25.5100   31.6460 C.ar    0  non0       -0.0029
@<TRIPOS>BOND
     1    23    18    1
     2    23    21    1
     3    18    16    1
     4    24    21    2
     5    21    20   am
     6    16    15   ar
     7    16    17   ar
     8    15    14   ar
     9    20    17    1
    10    20    22    1
    11    17    19   ar
    12    37    38   ar
    13    37    36   ar
    14    38    33   ar
    15    14    13   ar
    16    36    35   ar
    17    19    13   ar
    18    33    32    1
    19    33    34   ar
    20    13    11    1
    21    32    30    1
    22    28    27    2
    23    35    34   ar
    24    11    12    2
    25    11    10    1
    26    30    27    1
    27    30    31    1
    28    27     1    1
    29    27    29    2
    30     2     1   ar
    31     2     3   ar
    32     1     6   ar
    33     3     4   ar
    34    10     9    1
    35     6     5   ar
    36     4     5   ar
    37     4    25    1
    38    26    25    1
    39     5     7    1
    40     9     7    1
    41     7     8    2
@<TRIPOS>MOLECULE
89850584_Intermediate
 38 41 0 0 0
SMALL
GASTEIGER

@<TRIPOS>ATOM
      1  C8        21.5180   30.5930   37.7190 C.ar    0  non0        0.1224
      2  C9        20.7060   31.7290   37.6770 C.ar    0  non0        0.0230
      3  C10       19.5510   31.7250   36.8860 C.ar    0  non0        0.0382
      4  C11       19.2140   30.5920   36.1390 C.ar    0  non0        0.1399
      5  C12       20.0410   29.4620   36.1880 C.ar    0  non0        0.1105
      6  C13       21.1960   29.4600   36.9720 C.ar    0  non0        0.0294
      7  C14       19.6890   28.2950   35.4130 C.2     0  non0        0.3446
      8  O1        20.4990   27.8110   34.6350 O.2     0  non0       -0.2448
      9  O2        18.4630   27.7360   35.5490 O.3     0  non0       -0.4368
     10  C15       18.3750   27.0840   36.8050 C.3     0  non0        0.2769
     11  C16       17.5360   27.9030   37.7300 C.2     0  non0        0.2171
     12  O5        16.5500   28.4860   37.3060 O.2     0  non0       -0.2874
     13  C17       17.8950   28.0100   39.1380 C.ar    0  non0        0.0399
     14  C18       17.4290   27.0570   40.0610 C.ar    0  non0        0.0062
     15  C19       17.8020   27.1460   41.4040 C.ar    0  non0        0.0383
     16  C20       18.6290   28.1850   41.8370 C.ar    0  non0        0.1526
     17  C21       19.0760   29.1450   40.9250 C.ar    0  non0        0.0849
     18  O3        18.9260   28.1950   43.1690 O.3     0  non0       -0.4643
     19  C22       18.7130   29.0660   39.5820 C.ar    0  non0        0.0207
     20  N2        19.8820   30.1970   41.3520 N.am    0  non0       -0.2785
     21  C23       20.2830   30.3160   42.6510 C.2     0  non0        0.2707
     22  H17       20.1870   30.9010   40.6960 H       0  non0        0.1551
     23  C24       19.8300   29.2020   43.5930 C.3     0  non0        0.2897
     24  O4        20.9580   31.2600   43.0040 O.2     0  non0       -0.2707
     25  O6        18.1470   30.5810   35.4080 O.3     0  non0       -0.5053
     26  H20       18.1970   29.8560   34.7800 H       0  non0        0.2922
     27  S1        22.9600   30.6030   38.7290 S.O2    0  non0        0.0605
     28  O7        22.6350   31.3980   40.1500 O.2     0  non0       -0.1530
     29  O8        24.1910   31.3800   37.9280 O.2     0  non0       -0.1530
     30  N1        23.4110   29.0480   39.0580 N.3     0  non0       -0.1749
     31  H8        23.8410   28.3550   38.4630 H       0  non0        0.1492
     32  C1        23.0950   28.7320   40.4470 C.3     0  non0        0.1177
     33  C2        22.2760   27.4940   40.5000 C.ar    0  non0       -0.0048
     34  C3        22.0650   26.8330   41.7230 C.ar    0  non0       -0.0029
     35  C4        21.3030   25.6620   41.7700 C.ar    0  non0       -0.0003
     36  C5        20.7430   25.1390   40.6010 C.ar    0  non0       -0.0000
     37  C6        20.9490   25.7990   39.3840 C.ar    0  non0       -0.0003
     38  C7        21.7060   26.9700   39.3280 C.ar    0  non0       -0.0029
@<TRIPOS>BOND
     1     8     7    2
     2    26    25    1
     3    25     4    1
     4     7     9    1
     5     7     5    1
     6     9    10    1
     7     4     5   ar
     8     4     3   ar
     9     5     6   ar
    10    10    11    1
    11     3     2   ar
    12     6     1   ar
    13    12    11    2
    14     2     1   ar
    15     1    27    1
    16    11    13    1
    17    29    27    2
    18    31    30    1
    19    27    30    1
    20    27    28    2
    21    30    32    1
    22    13    19   ar
    23    13    14   ar
    24    38    37   ar
    25    38    33   ar
    26    37    36   ar
    27    19    17   ar
    28    14    15   ar
    29    32    33    1
    30    33    34   ar
    31    36    35   ar
    32    22    20    1
    33    17    20    1
    34    17    16   ar
    35    20    21   am
    36    15    16   ar
    37    34    35   ar
    38    16    18    1
    39    21    24    2
    40    21    23    1
    41    18    23    1
@<TRIPOS>MOLECULE
14740370_Intermediate
 24 27 0 0 0
SMALL
GASTEIGER

@<TRIPOS>ATOM
      1  C4        21.3520   24.5390   32.8780 C.2     0  non0        0.2519
      2  N1        21.8260   25.8230   32.8370 N.am    0  non0       -0.2803
      3  O1        20.3710   24.2710   33.5550 O.2     0  non0       -0.2697
      4  H4        22.6390   26.0280   32.2720 H       0  non0        0.1552
      5  C3        21.9920   23.5300   32.1430 C.ar    0  non0        0.0825
      6  C2        21.5350   23.0570   30.9070 C.ar    0  non0        0.1268
      7  C1        20.3800   23.4260   30.1020 C.3     0  non0        0.0726
      8  O2        22.3810   22.0770   30.4490 O.2     0  non0       -0.4622
      9  C20       23.3490   21.9270   31.3730 C.ar    0  non0        0.1185
     10  C19       24.4140   20.9240   31.1610 C.3     0  non0        0.0642
     11  C15       23.1780   22.7830   32.4350 C.ar    0  non0        0.0151
     12  C18       25.0100   20.5620   32.5300 C.3     0  non0        0.0083
     13  C17       25.3370   21.8040   33.3780 C.3     0  non0        0.0052
     14  C16       24.1400   22.7530   33.5260 C.3     0  non0        0.0294
     15  C5        21.1890   26.8250   33.5690 C.ar    0  non0        0.0505
     16  C6        20.0550   27.4740   33.0390 C.ar    0  non0        0.0147
     17  C7        19.4010   28.4570   33.7770 C.ar    0  non0        0.0013
     18  C8        19.8870   28.8200   35.0380 C.ar    0  non0        0.0001
     19  C9        21.0250   28.2040   35.5800 C.ar    0  non0        0.0012
     20  C10       21.5260   28.5630   36.8410 C.ar    0  non0        0.0000
     21  C14       21.6780   27.1930   34.8400 C.ar    0  non0        0.0135
     22  C11       22.6560   27.9330   37.3660 C.ar    0  non0        0.0000
     23  C12       23.2960   26.9330   36.6390 C.ar    0  non0        0.0000
     24  C13       22.8090   26.5640   35.3840 C.ar    0  non0        0.0012
@<TRIPOS>BOND
     1     7     6    1
     2     8     6   ar
     3     8     9   ar
     4     6     5   ar
     5    10     9    1
     6    10    12    1
     7     9    11   ar
     8     5    11   ar
     9     5     1    1
    10     4     2    1
    11    11    14    1
    12    12    13    1
    13     2     1   am
    14     2    15    1
    15     1     3    2
    16    16    15   ar
    17    16    17   ar
    18    13    14    1
    19    15    21   ar
    20    17    18   ar
    21    21    24   ar
    22    21    19   ar
    23    18    19   ar
    24    24    23   ar
    25    19    20   ar
    26    23    22   ar
    27    20    22   ar
@<TRIPOS>MOLECULE
14740370_Intermediate
 24 27 0 0 0
SMALL
GASTEIGER

@<TRIPOS>ATOM
      1  C4        16.7010   27.8260   33.5310 C.2     0  non0        0.2519
      2  N1        16.8090   29.1900   33.5860 N.am    0  non0       -0.2803
      3  O1        16.1900   27.2920   32.5580 O.2     0  non0       -0.2697
      4  H4        17.2340   29.6170   34.3970 H       0  non0        0.1552
      5  C3        17.1780   27.0410   34.5910 C.ar    0  non0        0.0825
      6  C2        18.3800   26.3260   34.5520 C.ar    0  non0        0.1268
      7  C1        19.3890   26.1930   33.5120 C.3     0  non0        0.0726
      8  O2        18.5610   25.6650   35.7430 O.2     0  non0       -0.4622
      9  C20       17.4960   25.9480   36.5160 C.ar    0  non0        0.1185
     10  C19       17.4000   25.3650   37.8720 C.3     0  non0        0.0642
     11  C15       16.6090   26.7850   35.8800 C.ar    0  non0        0.0151
     12  C18       15.9210   25.3610   38.2890 C.3     0  non0        0.0083
     13  C17       15.2310   26.7120   38.0260 C.3     0  non0        0.0052
     14  C16       15.4000   27.1930   36.5780 C.3     0  non0        0.0294
     15  C5        16.3350   29.9700   32.5300 C.ar    0  non0        0.0505
     16  C6        17.1500   30.2060   31.4040 C.ar    0  non0        0.0147
     17  C7        16.6710   30.9620   30.3380 C.ar    0  non0        0.0013
     18  C8        15.3860   31.5120   30.3960 C.ar    0  non0        0.0001
     19  C9        14.5620   31.3100   31.5130 C.ar    0  non0        0.0012
     20  C10       13.2730   31.8610   31.5860 C.ar    0  non0        0.0000
     21  C14       15.0390   30.5260   32.5870 C.ar    0  non0        0.0135
     22  C11       12.4650   31.6410   32.7040 C.ar    0  non0        0.0000
     23  C12       12.9350   30.8650   33.7600 C.ar    0  non0        0.0000
     24  C13       14.2130   30.3090   33.7010 C.ar    0  non0        0.0012
@<TRIPOS>BOND
     1    17    18   ar
     2    17    16   ar
     3    18    19   ar
     4    16    15   ar
     5    19    20   ar
     6    19    21   ar
     7    20    22   ar
     8    15    21   ar
     9    15     2    1
    10     3     1    2
    11    21    24   ar
    12    22    23   ar
    13     7     6    1
    14     1     2   am
    15     1     5    1
    16     2     4    1
    17    24    23   ar
    18     6     5   ar
    19     6     8   ar
    20     5    11   ar
    21     8     9   ar
    22    11     9   ar
    23    11    14    1
    24     9    10    1
    25    14    13    1
    26    10    12    1
    27    13    12    1
@<TRIPOS>MOLECULE
14740370_Intermediate
 24 27 0 0 0
SMALL
GASTEIGER

@<TRIPOS>ATOM
      1  C4        14.8270   24.2170   34.5420 C.2     0  non0        0.2519
      2  N1        15.2580   23.6540   33.3710 N.am    0  non0       -0.2803
      3  O1        14.6000   25.4170   34.5960 O.2     0  non0       -0.2697
      4  H4        15.4410   22.6610   33.3420 H       0  non0        0.1552
      5  C3        14.6440   23.4180   35.6800 C.ar    0  non0        0.0825
      6  C2        13.3920   22.9990   36.1450 C.ar    0  non0        0.1268
      7  C1        12.0480   23.2420   35.6440 C.3     0  non0        0.0726
      8  O2        13.5540   22.2300   37.2720 O.2     0  non0       -0.4622
      9  C20       14.8760   22.1680   37.5200 C.ar    0  non0        0.1185
     10  C19       15.3660   21.4080   38.6900 C.3     0  non0        0.0642
     11  C15       15.6050   22.8690   36.5880 C.ar    0  non0        0.0151
     12  C18       16.7560   21.9470   39.0630 C.3     0  non0        0.0083
     13  C17       17.6830   22.0820   37.8420 C.3     0  non0        0.0052
     14  C16       17.0540   22.9040   36.7080 C.3     0  non0        0.0294
     15  C5        15.4400   24.4500   32.2400 C.ar    0  non0        0.0505
     16  C6        14.3450   24.7460   31.4010 C.ar    0  non0        0.0147
     17  C7        14.5180   25.5610   30.2860 C.ar    0  non0        0.0013
     18  C8        15.7850   26.0670   29.9810 C.ar    0  non0        0.0001
     19  C9        16.8950   25.7720   30.7880 C.ar    0  non0        0.0012
     20  C10       18.1740   26.2690   30.4910 C.ar    0  non0        0.0000
     21  C14       16.7180   24.9610   31.9310 C.ar    0  non0        0.0135
     22  C11       19.2640   25.9700   31.3110 C.ar    0  non0        0.0000
     23  C12       19.0880   25.1750   32.4390 C.ar    0  non0        0.0000
     24  C13       17.8230   24.6750   32.7490 C.ar    0  non0        0.0012
@<TRIPOS>BOND
     1    18    17   ar
     2    18    19   ar
     3    17    16   ar
     4    20    19   ar
     5    20    22   ar
     6    19    21   ar
     7    22    23   ar
     8    16    15   ar
     9    21    15   ar
    10    21    24   ar
    11    15     2    1
    12    23    24   ar
    13     4     2    1
    14     2     1   am
    15     1     3    2
    16     1     5    1
    17     7     6    1
    18     5     6   ar
    19     5    11   ar
    20     6     8   ar
    21    11    14    1
    22    11     9   ar
    23    14    13    1
    24     8     9   ar
    25     9    10    1
    26    13    12    1
    27    10    12    1
